fxr35
 OpenBabel11211618043D

 68 72  0  0  1  0  0  0  0  0999 V2000
   43.4340   14.3490    9.5010 C   0  0  0  0  0  0  0  0  0  0  0  0
   43.6370   13.0710   10.3290 C   0  0  0  0  0  0  0  0  0  0  0  0
   43.7380   11.8290    9.4290 C   0  0  0  0  0  0  0  0  0  0  0  0
   42.5460   11.7160    8.4630 C   0  0  0  0  0  0  0  0  0  0  0  0
   42.3960   12.9930    7.5960 C   0  0  0  0  0  0  0  0  0  0  0  0
   42.2430   14.2190    8.5370 C   0  0  0  0  0  0  0  0  0  0  0  0
   41.2390   12.9350    6.5790 C   0  0  1  0  0  0  0  0  0  0  0  0
   41.3820   13.9410    5.4460 C   0  0  0  0  0  0  0  0  0  0  0  0
   42.1860   14.8710    5.5070 O   0  0  0  0  0  0  0  0  0  0  0  0
   40.5520   13.7660    4.3850 N   0  0  0  0  0  0  0  0  0  0  0  0
   40.4870   14.6430    3.2470 C   0  0  2  0  0  0  0  0  0  0  0  0
   39.1380   14.5050    2.5070 C   0  0  0  0  0  0  0  0  0  0  0  0
   39.0680   15.3380    1.2170 C   0  0  0  0  0  0  0  0  0  0  0  0
   40.2260   14.9990    0.2530 C   0  0  2  0  0  0  0  0  0  0  0  0
   41.5760   15.2050    0.9810 C   0  0  0  0  0  0  0  0  0  0  0  0
   41.6660   14.3790    2.2770 C   0  0  0  0  0  0  0  0  0  0  0  0
   40.1680   15.8580   -0.8790 O   0  0  0  0  0  0  0  0  0  0  0  0
   39.9140   15.2190   -2.2780 S   0  0  0  0  0  0  0  0  0  0  0  0
   39.9140   16.3370   -3.2030 O   0  0  0  0  0  0  0  0  0  0  0  0
   38.6420   14.5280   -2.1820 O   0  0  0  0  0  0  0  0  0  0  0  0
   41.0440   14.3230   -2.4550 O   0  0  0  0  0  0  0  0  0  0  0  0
   40.8570   11.6080    6.0520 N   0  0  0  0  0  0  0  0  0  0  0  0
   41.6690   10.7230    5.3630 C   0  0  0  0  0  0  0  0  0  0  0  0
   40.8780    9.5860    5.1370 C   0  0  0  0  0  0  0  0  0  0  0  0
   39.6300    9.7660    5.6500 N   0  0  0  0  0  0  0  0  0  0  0  0
   39.6270   10.9770    6.1840 C   0  0  0  0  0  0  0  0  0  0  0  0
   38.4130   11.5680    6.8100 C   0  0  0  0  0  0  0  0  0  0  0  0
   37.3260   11.9310    5.9950 C   0  0  0  0  0  0  0  0  0  0  0  0
   36.1820   12.5030    6.5590 C   0  0  0  0  0  0  0  0  0  0  0  0
   36.1240   12.7280    7.9380 C   0  0  0  0  0  0  0  0  0  0  0  0
   37.2050   12.3880    8.7580 C   0  0  0  0  0  0  0  0  0  0  0  0
   38.3500   11.8110    8.1970 C   0  0  0  0  0  0  0  0  0  0  0  0
   34.7040   13.4420    8.6320 Cl  0  0  0  0  0  0  0  0  0  0  0  0
   41.3940    8.4870    4.4750 C   0  0  0  0  0  0  0  0  0  0  0  0
   42.7090    8.5420    4.0270 C   0  0  0  0  0  0  0  0  0  0  0  0
   43.4960    9.6700    4.2440 C   0  0  0  0  0  0  0  0  0  0  0  0
   42.9910   10.7740    4.9250 C   0  0  0  0  0  0  0  0  0  0  0  0
   44.7790    9.7000    3.7950 F   0  0  0  0  0  0  0  0  0  0  0  0
   43.2190    7.4680    3.3690 F   0  0  0  0  0  0  0  0  0  0  0  0
   44.3540   14.5380    8.9050 H   0  0  0  0  0  0  0  0  0  0  0  0
   43.2780   15.2150   10.1800 H   0  0  0  0  0  0  0  0  0  0  0  0
   42.7660   12.9460   11.0100 H   0  0  0  0  0  0  0  0  0  0  0  0
   44.5530   13.1640   10.9520 H   0  0  0  0  0  0  0  0  0  0  0  0
   43.8000   10.9150   10.0590 H   0  0  0  0  0  0  0  0  0  0  0  0
   44.6730   11.8990    8.8300 H   0  0  0  0  0  0  0  0  0  0  0  0
   41.6200   11.5640    9.0600 H   0  0  0  0  0  0  0  0  0  0  0  0
   42.6900   10.8280    7.8130 H   0  0  0  0  0  0  0  0  0  0  0  0
   43.3540   13.1460    7.0460 H   0  0  0  0  0  0  0  0  0  0  0  0
   42.1610   15.1480    7.9330 H   0  0  0  0  0  0  0  0  0  0  0  0
   41.3120   14.1100    9.1340 H   0  0  0  0  0  0  0  0  0  0  0  0
   40.3650   13.3310    7.1430 H   0  0  0  0  0  0  0  0  0  0  0  0
   39.9190   12.9980    4.3590 H   0  0  0  0  0  0  0  0  0  0  0  0
   40.5830   15.6940    3.6090 H   0  0  0  0  0  0  0  0  0  0  0  0
   38.9830   13.4340    2.2500 H   0  0  0  0  0  0  0  0  0  0  0  0
   38.3070   14.8170    3.1760 H   0  0  0  0  0  0  0  0  0  0  0  0
   39.1160   16.4170    1.4800 H   0  0  0  0  0  0  0  0  0  0  0  0
   38.0970   15.1490    0.7100 H   0  0  0  0  0  0  0  0  0  0  0  0
   40.1360   13.9080    0.0200 H   0  0  0  0  0  0  0  0  0  0  0  0
   42.4090   14.9200    0.3030 H   0  0  0  0  0  0  0  0  0  0  0  0
   41.6900   16.2820    1.2330 H   0  0  0  0  0  0  0  0  0  0  0  0
   42.6250   14.6000    2.7920 H   0  0  0  0  0  0  0  0  0  0  0  0
   41.6640   13.3000    2.0060 H   0  0  0  0  0  0  0  0  0  0  0  0
   37.3600   11.7630    4.9270 H   0  0  0  0  0  0  0  0  0  0  0  0
   35.3460   12.7740    5.9310 H   0  0  0  0  0  0  0  0  0  0  0  0
   37.1560   12.5720    9.8210 H   0  0  0  0  0  0  0  0  0  0  0  0
   39.1820   11.5550    8.8370 H   0  0  0  0  0  0  0  0  0  0  0  0
   40.7830    7.6140    4.3070 H   0  0  0  0  0  0  0  0  0  0  0  0
   43.6050   11.6450    5.0930 H   0  0  0  0  0  0  0  0  0  0  0  0
  1 41  1  0  0  0  0
  1  2  1  0  0  0  0
  2 43  1  0  0  0  0
  2 42  1  0  0  0  0
  3 44  1  0  0  0  0
  3  2  1  0  0  0  0
  4 46  1  0  0  0  0
  4  3  1  0  0  0  0
  5  4  1  0  0  0  0
  5  6  1  0  0  0  0
  6 50  1  0  0  0  0
  6  1  1  0  0  0  0
  7 51  1  1  0  0  0
  7  5  1  0  0  0  0
  8  9  2  0  0  0  0
  8  7  1  0  0  0  0
 10  8  1  0  0  0  0
 11 53  1  1  0  0  0
 11 10  1  0  0  0  0
 12 55  1  0  0  0  0
 12 11  1  0  0  0  0
 13 56  1  0  0  0  0
 13 12  1  0  0  0  0
 14 58  1  6  0  0  0
 14 15  1  0  0  0  0
 14 13  1  0  0  0  0
 15 60  1  0  0  0  0
 15 16  1  0  0  0  0
 16 61  1  0  0  0  0
 16 11  1  0  0  0  0
 17 14  1  0  0  0  0
 18 20  1  0  0  0  0
 18 17  1  0  0  0  0
 19 18  2  0  0  0  0
 21 18  2  0  0  0  0
 22 26  1  0  0  0  0
 22  7  1  0  0  0  0
 23 22  1  0  0  0  0
 24 23  1  0  0  0  0
 24 25  1  0  0  0  0
 25 26  2  0  0  0  0
 26 27  1  0  0  0  0
 27 32  2  0  0  0  0
 28 29  2  0  0  0  0
 28 27  1  0  0  0  0
 29 30  1  0  0  0  0
 30 33  1  0  0  0  0
 30 31  2  0  0  0  0
 31 65  1  0  0  0  0
 32 31  1  0  0  0  0
 32 66  1  0  0  0  0
 34 24  2  0  0  0  0
 35 36  2  0  0  0  0
 35 34  1  0  0  0  0
 36 37  1  0  0  0  0
 37 68  1  0  0  0  0
 37 23  2  0  0  0  0
 38 36  1  0  0  0  0
 39 35  1  0  0  0  0
 40  1  1  0  0  0  0
 45  3  1  0  0  0  0
 47  4  1  0  0  0  0
 48  5  1  0  0  0  0
 49  6  1  0  0  0  0
 52 10  1  0  0  0  0
 54 12  1  0  0  0  0
 57 13  1  0  0  0  0
 59 15  1  0  0  0  0
 62 16  1  0  0  0  0
 63 28  1  0  0  0  0
 64 29  1  0  0  0  0
 67 34  1  0  0  0  0
M  END
