fxr25
 OpenBabel11211618043D

 59 63  0  0  1  0  0  0  0  0999 V2000
   42.0390    8.4800    3.5680 C   0  0  0  0  0  0  0  0  0  0  0  0
   41.0850    9.1500    4.3340 C   0  0  0  0  0  0  0  0  0  0  0  0
   40.8290   10.5030    4.1330 C   0  0  0  0  0  0  0  0  0  0  0  0
   41.5350   11.1580    3.1320 C   0  0  0  0  0  0  0  0  0  0  0  0
   42.4860   10.4790    2.3520 C   0  0  0  0  0  0  0  0  0  0  0  0
   42.7510    9.1400    2.5730 C   0  0  0  0  0  0  0  0  0  0  0  0
   43.0320   11.3200    1.4340 N   0  0  0  0  0  0  0  0  0  0  0  0
   42.4540   12.4960    1.6260 C   0  0  0  0  0  0  0  0  0  0  0  0
   41.5400   12.4610    2.6850 N   0  0  0  0  0  0  0  0  0  0  0  0
   40.7220   13.5470    3.2700 C   0  0  1  0  0  0  0  0  0  0  0  0
   39.2430   13.6890    2.8600 C   0  0  0  0  0  0  0  0  0  0  0  0
   39.0590   13.4460    1.3330 C   0  0  0  0  0  0  0  0  0  0  0  0
   38.9000   14.7610    0.5570 C   0  0  0  0  0  0  0  0  0  0  0  0
   37.6670   15.5620    1.0170 C   0  0  0  0  0  0  0  0  0  0  0  0
   37.3390   15.3510    2.5040 C   0  0  0  0  0  0  0  0  0  0  0  0
   38.5990   15.0310    3.3050 C   0  0  0  0  0  0  0  0  0  0  0  0
   40.9130   13.5600    4.7700 C   0  0  0  0  0  0  0  0  0  0  0  0
   39.9450   13.6530    5.5150 O   0  0  0  0  0  0  0  0  0  0  0  0
   42.1990   13.4810    5.2180 N   0  0  0  0  0  0  0  0  0  0  0  0
   42.6830   13.4240    6.5660 C   0  0  0  0  0  0  0  0  0  0  0  0
   43.6530   12.4440    6.8860 C   0  0  0  0  0  0  0  0  0  0  0  0
   44.1280   12.3190    8.2030 C   0  0  0  0  0  0  0  0  0  0  0  0
   43.6470   13.1640    9.2080 C   0  0  0  0  0  0  0  0  0  0  0  0
   42.6950   14.1360    8.9030 C   0  0  0  0  0  0  0  0  0  0  0  0
   42.2190   14.2630    7.5970 C   0  0  0  0  0  0  0  0  0  0  0  0
   44.1980   11.5520    5.8950 C   0  0  0  0  0  0  0  0  0  0  0  0
   44.6400   10.8250    5.0770 N   0  0  0  0  0  0  0  0  0  0  0  0
   42.7700   13.6600    0.7510 C   0  0  0  0  0  0  0  0  0  0  0  0
   43.2050   14.8630    1.3380 C   0  0  0  0  0  0  0  0  0  0  0  0
   43.5220   15.9650    0.5370 C   0  0  0  0  0  0  0  0  0  0  0  0
   43.4020   15.8750   -0.8540 C   0  0  0  0  0  0  0  0  0  0  0  0
   42.9940   14.6790   -1.4510 C   0  0  0  0  0  0  0  0  0  0  0  0
   42.7060   13.5690   -0.6520 C   0  0  0  0  0  0  0  0  0  0  0  0
   43.7970   17.2410   -1.8480 Cl  0  0  0  0  0  0  0  0  0  0  0  0
   40.3880    8.4870    5.2950 F   0  0  0  0  0  0  0  0  0  0  0  0
   42.2900    7.1610    3.7800 F   0  0  0  0  0  0  0  0  0  0  0  0
   40.0910   11.0200    4.7260 H   0  0  0  0  0  0  0  0  0  0  0  0
   43.4880    8.6230    1.9770 H   0  0  0  0  0  0  0  0  0  0  0  0
   41.1880   14.5000    2.9240 H   0  0  0  0  0  0  0  0  0  0  0  0
   38.6470   12.9020    3.3670 H   0  0  0  0  0  0  0  0  0  0  0  0
   39.9170   12.8660    0.9330 H   0  0  0  0  0  0  0  0  0  0  0  0
   38.1430   12.8350    1.1710 H   0  0  0  0  0  0  0  0  0  0  0  0
   39.8140   15.3740    0.7320 H   0  0  0  0  0  0  0  0  0  0  0  0
   38.8300   14.5660   -0.5340 H   0  0  0  0  0  0  0  0  0  0  0  0
   36.7780   15.2660    0.4180 H   0  0  0  0  0  0  0  0  0  0  0  0
   37.8620   16.6400    0.8260 H   0  0  0  0  0  0  0  0  0  0  0  0
   36.6360   14.4930    2.6070 H   0  0  0  0  0  0  0  0  0  0  0  0
   36.8360   16.2550    2.9100 H   0  0  0  0  0  0  0  0  0  0  0  0
   38.3490   14.9800    4.3880 H   0  0  0  0  0  0  0  0  0  0  0  0
   39.3000   15.8790    3.1440 H   0  0  0  0  0  0  0  0  0  0  0  0
   42.9320   13.4370    4.5450 H   0  0  0  0  0  0  0  0  0  0  0  0
   44.8680   11.5720    8.4550 H   0  0  0  0  0  0  0  0  0  0  0  0
   44.0140   13.0660   10.2200 H   0  0  0  0  0  0  0  0  0  0  0  0
   42.3220   14.7910    9.6780 H   0  0  0  0  0  0  0  0  0  0  0  0
   41.4820   15.0290    7.4330 H   0  0  0  0  0  0  0  0  0  0  0  0
   43.2920   14.9480    2.4120 H   0  0  0  0  0  0  0  0  0  0  0  0
   43.8530   16.8870    0.9920 H   0  0  0  0  0  0  0  0  0  0  0  0
   42.9280   14.6050   -2.5270 H   0  0  0  0  0  0  0  0  0  0  0  0
   42.4680   12.6340   -1.1340 H   0  0  0  0  0  0  0  0  0  0  0  0
  1 36  1  0  0  0  0
  1  2  2  0  0  0  0
  2 35  1  0  0  0  0
  3  2  1  0  0  0  0
  3 37  1  0  0  0  0
  4  3  2  0  0  0  0
  5  6  2  0  0  0  0
  5  4  1  0  0  0  0
  6  1  1  0  0  0  0
  7  8  2  0  0  0  0
  7  5  1  0  0  0  0
  8  9  1  0  0  0  0
  9  4  1  0  0  0  0
  9 10  1  0  0  0  0
 10 39  1  6  0  0  0
 10 17  1  0  0  0  0
 11 10  1  0  0  0  0
 11 16  1  0  0  0  0
 11 40  1  0  0  0  0
 12 11  1  0  0  0  0
 13 43  1  0  0  0  0
 13 14  1  0  0  0  0
 13 12  1  0  0  0  0
 14 15  1  0  0  0  0
 15 47  1  0  0  0  0
 15 48  1  0  0  0  0
 15 16  1  0  0  0  0
 16 49  1  0  0  0  0
 17 19  1  0  0  0  0
 17 18  2  0  0  0  0
 19 20  1  0  0  0  0
 20 21  2  0  0  0  0
 20 25  1  0  0  0  0
 21 22  1  0  0  0  0
 22 52  1  0  0  0  0
 22 23  2  0  0  0  0
 23 53  1  0  0  0  0
 24 23  1  0  0  0  0
 24 54  1  0  0  0  0
 25 24  2  0  0  0  0
 26 21  1  0  0  0  0
 27 26  3  0  0  0  0
 28 29  1  0  0  0  0
 28  8  1  0  0  0  0
 29 56  1  0  0  0  0
 30 57  1  0  0  0  0
 30 29  2  0  0  0  0
 31 30  1  0  0  0  0
 32 31  2  0  0  0  0
 32 33  1  0  0  0  0
 33 28  2  0  0  0  0
 34 31  1  0  0  0  0
 38  6  1  0  0  0  0
 41 12  1  0  0  0  0
 42 12  1  0  0  0  0
 44 13  1  0  0  0  0
 45 14  1  0  0  0  0
 46 14  1  0  0  0  0
 50 16  1  0  0  0  0
 51 19  1  0  0  0  0
 55 25  1  0  0  0  0
 58 32  1  0  0  0  0
 59 33  1  0  0  0  0
M  END
