fxr16
 OpenBabel11211618043D

 52 55  0  0  0  0  0  0  0  0999 V2000
   37.4090   14.4490    1.6550 C   0  0  0  0  0  0  0  0  0  0  0  0
   38.6190   15.4000    1.7040 C   0  0  0  0  0  0  0  0  0  0  0  0
   38.5700   16.4080    0.5440 C   0  0  0  0  0  0  0  0  0  0  0  0
   39.8370   14.6370    1.6880 N   0  0  0  0  0  0  0  0  0  0  0  0
   40.4110   14.0990    2.8170 C   0  0  0  0  0  0  0  0  0  0  0  0
   39.9330   14.3270    3.9280 O   0  0  0  0  0  0  0  0  0  0  0  0
   41.4880   13.2420    2.6020 N   0  0  0  0  0  0  0  0  0  0  0  0
   41.8910   12.2710    3.5070 C   0  0  0  0  0  0  0  0  0  0  0  0
   41.3450   12.0280    4.9020 C   0  0  0  0  0  0  0  0  0  0  0  0
   41.7970   10.7300    5.4890 N   0  0  0  0  0  0  0  0  0  0  0  0
   43.2470   10.4920    5.1950 C   0  0  0  0  0  0  0  0  0  0  0  0
   43.5470   10.4310    3.6780 C   0  0  0  0  0  0  0  0  0  0  0  0
   42.8990   11.5640    2.9380 C   0  0  0  0  0  0  0  0  0  0  0  0
   43.1500   12.0700    1.7040 C   0  0  0  0  0  0  0  0  0  0  0  0
   42.3200   13.1290    1.4780 C   0  0  0  0  0  0  0  0  0  0  0  0
   42.3750   14.0420    0.3000 C   0  0  0  0  0  0  0  0  0  0  0  0
   42.2340   13.5570   -1.0110 C   0  0  0  0  0  0  0  0  0  0  0  0
   42.2570   14.4450   -2.0940 C   0  0  0  0  0  0  0  0  0  0  0  0
   42.4310   15.8180   -1.8740 C   0  0  0  0  0  0  0  0  0  0  0  0
   42.5820   16.3070   -0.5710 C   0  0  0  0  0  0  0  0  0  0  0  0
   42.5580   15.4230    0.5120 C   0  0  0  0  0  0  0  0  0  0  0  0
   41.3200   10.4630    7.0670 S   0  0  0  0  0  0  0  0  0  0  0  0
   39.9540   10.8760    7.2570 O   0  0  0  0  0  0  0  0  0  0  0  0
   41.7890    9.1830    7.5350 O   0  0  0  0  0  0  0  0  0  0  0  0
   42.2160   11.6730    8.0090 C   0  0  0  0  0  0  0  0  0  0  0  0
   43.4740   11.4800    8.5100 C   0  0  0  0  0  0  0  0  0  0  0  0
   43.8700   12.5490    9.2920 C   0  0  0  0  0  0  0  0  0  0  0  0
   42.9160   13.5330    9.4100 C   0  0  0  0  0  0  0  0  0  0  0  0
   41.4880   13.1180    8.5440 S   0  0  0  0  0  0  0  0  0  0  0  0
   37.4180   13.8600    0.7140 H   0  0  0  0  0  0  0  0  0  0  0  0
   36.4630   15.0280    1.7010 H   0  0  0  0  0  0  0  0  0  0  0  0
   37.4360   13.7460    2.5150 H   0  0  0  0  0  0  0  0  0  0  0  0
   38.5500   15.9730    2.6600 H   0  0  0  0  0  0  0  0  0  0  0  0
   37.6300   16.9990    0.5860 H   0  0  0  0  0  0  0  0  0  0  0  0
   38.6100   15.8740   -0.4290 H   0  0  0  0  0  0  0  0  0  0  0  0
   39.4320   17.1060    0.6030 H   0  0  0  0  0  0  0  0  0  0  0  0
   40.0910   14.2880    0.7900 H   0  0  0  0  0  0  0  0  0  0  0  0
   40.2330   12.0190    4.8650 H   0  0  0  0  0  0  0  0  0  0  0  0
   41.6720   12.8670    5.5530 H   0  0  0  0  0  0  0  0  0  0  0  0
   43.5790    9.5330    5.6450 H   0  0  0  0  0  0  0  0  0  0  0  0
   43.8400   11.3120    5.6560 H   0  0  0  0  0  0  0  0  0  0  0  0
   43.1540    9.4730    3.2710 H   0  0  0  0  0  0  0  0  0  0  0  0
   44.6470   10.4510    3.5160 H   0  0  0  0  0  0  0  0  0  0  0  0
   43.9230   11.7220    1.0330 H   0  0  0  0  0  0  0  0  0  0  0  0
   42.0930   12.5000   -1.1920 H   0  0  0  0  0  0  0  0  0  0  0  0
   42.1420   14.0710   -3.1010 H   0  0  0  0  0  0  0  0  0  0  0  0
   42.4500   16.5000   -2.7110 H   0  0  0  0  0  0  0  0  0  0  0  0
   42.7180   17.3650   -0.4020 H   0  0  0  0  0  0  0  0  0  0  0  0
   42.6730   15.8130    1.5140 H   0  0  0  0  0  0  0  0  0  0  0  0
   44.0810   10.6040    8.3350 H   0  0  0  0  0  0  0  0  0  0  0  0
   44.8380   12.6050    9.7720 H   0  0  0  0  0  0  0  0  0  0  0  0
   42.9650   14.4610    9.9670 H   0  0  0  0  0  0  0  0  0  0  0  0
  1 31  1  0  0  0  0
  1  2  1  0  0  0  0
  1 32  1  0  0  0  0
  2 33  1  0  0  0  0
  3 34  1  0  0  0  0
  3 36  1  0  0  0  0
  3  2  1  0  0  0  0
  4  2  1  0  0  0  0
  4  5  1  0  0  0  0
  5  6  2  0  0  0  0
  7  5  1  0  0  0  0
  7  8  1  0  0  0  0
  8  9  1  0  0  0  0
  9 10  1  0  0  0  0
  9 39  1  0  0  0  0
 10 22  1  0  0  0  0
 11 10  1  0  0  0  0
 11 40  1  0  0  0  0
 11 41  1  0  0  0  0
 12 11  1  0  0  0  0
 13  8  2  0  0  0  0
 13 12  1  0  0  0  0
 14 13  1  0  0  0  0
 15 14  2  0  0  0  0
 15  7  1  0  0  0  0
 16 21  1  0  0  0  0
 16 15  1  0  0  0  0
 17 16  2  0  0  0  0
 18 19  2  0  0  0  0
 18 17  1  0  0  0  0
 19 20  1  0  0  0  0
 20 48  1  0  0  0  0
 20 21  2  0  0  0  0
 21 49  1  0  0  0  0
 22 23  2  0  0  0  0
 22 24  2  0  0  0  0
 22 25  1  0  0  0  0
 25 26  2  0  0  0  0
 25 29  1  0  0  0  0
 26 27  1  0  0  0  0
 27 28  2  0  0  0  0
 27 51  1  0  0  0  0
 28 52  1  0  0  0  0
 29 28  1  0  0  0  0
 30  1  1  0  0  0  0
 35  3  1  0  0  0  0
 37  4  1  0  0  0  0
 38  9  1  0  0  0  0
 42 12  1  0  0  0  0
 43 12  1  0  0  0  0
 44 14  1  0  0  0  0
 45 17  1  0  0  0  0
 46 18  1  0  0  0  0
 47 19  1  0  0  0  0
 50 26  1  0  0  0  0
M  END
