fxr3
 OpenBabel11211618043D

 56 58  0  0  0  0  0  0  0  0999 V2000
   34.7260   14.3440    9.5180 F   0  0  0  0  0  0  0  0  0  0  0  0
   35.6760   13.6990    8.7960 C   0  0  0  0  0  0  0  0  0  0  0  0
   36.1080   14.2590    7.5960 C   0  0  0  0  0  0  0  0  0  0  0  0
   37.0880   13.5920    6.8520 C   0  0  0  0  0  0  0  0  0  0  0  0
   37.6240   12.3780    7.3240 C   0  0  0  0  0  0  0  0  0  0  0  0
   38.6500   11.6300    6.6090 C   0  0  0  0  0  0  0  0  0  0  0  0
   39.6320   12.1810    5.8790 C   0  0  0  0  0  0  0  0  0  0  0  0
   40.6180   11.3720    5.0890 C   0  0  0  0  0  0  0  0  0  0  0  0
   40.6440   10.1540    5.2780 O   0  0  0  0  0  0  0  0  0  0  0  0
   41.4950   12.0010    4.2230 N   0  0  0  0  0  0  0  0  0  0  0  0
   42.8650   11.4700    4.1970 C   0  0  0  0  0  0  0  0  0  0  0  0
   43.1070   10.4880    3.0200 C   0  0  0  0  0  0  0  0  0  0  0  0
   44.5760   10.0470    2.9270 C   0  0  0  0  0  0  0  0  0  0  0  0
   45.0800    9.4530    4.2490 C   0  0  0  0  0  0  0  0  0  0  0  0
   44.8820   10.4350    5.4110 C   0  0  0  0  0  0  0  0  0  0  0  0
   43.4170   10.8630    5.5250 C   0  0  0  0  0  0  0  0  0  0  0  0
   41.1030   13.0130    3.3720 C   0  0  0  0  0  0  0  0  0  0  0  0
   39.9620   13.4760    3.3460 O   0  0  0  0  0  0  0  0  0  0  0  0
   42.0940   13.5510    2.5880 N   0  0  0  0  0  0  0  0  0  0  0  0
   41.8250   14.4270    1.4840 C   0  0  0  0  0  0  0  0  0  0  0  0
   41.4390   13.6230    0.2190 C   0  0  0  0  0  0  0  0  0  0  0  0
   41.2090   14.5290   -1.0000 C   0  0  0  0  0  0  0  0  0  0  0  0
   42.4210   15.4300   -1.2740 C   0  0  0  0  0  0  0  0  0  0  0  0
   42.8040   16.2400   -0.0270 C   0  0  0  0  0  0  0  0  0  0  0  0
   43.0360   15.3350    1.1890 C   0  0  0  0  0  0  0  0  0  0  0  0
   37.1730   11.8370    8.5390 C   0  0  0  0  0  0  0  0  0  0  0  0
   36.1900   12.5000    9.2800 C   0  0  0  0  0  0  0  0  0  0  0  0
   35.6990   15.1910    7.2370 H   0  0  0  0  0  0  0  0  0  0  0  0
   37.4280   14.0250    5.9220 H   0  0  0  0  0  0  0  0  0  0  0  0
   38.5580   10.5330    6.6020 H   0  0  0  0  0  0  0  0  0  0  0  0
   39.6730   13.2780    5.8420 H   0  0  0  0  0  0  0  0  0  0  0  0
   43.5520   12.3380    4.0270 H   0  0  0  0  0  0  0  0  0  0  0  0
   42.4600    9.5950    3.1570 H   0  0  0  0  0  0  0  0  0  0  0  0
   42.8250   10.9660    2.0570 H   0  0  0  0  0  0  0  0  0  0  0  0
   44.6910    9.3010    2.1110 H   0  0  0  0  0  0  0  0  0  0  0  0
   45.2000   10.9330    2.6730 H   0  0  0  0  0  0  0  0  0  0  0  0
   46.1560    9.1900    4.1580 H   0  0  0  0  0  0  0  0  0  0  0  0
   44.5130    8.5200    4.4620 H   0  0  0  0  0  0  0  0  0  0  0  0
   45.5130   11.3360    5.2420 H   0  0  0  0  0  0  0  0  0  0  0  0
   45.2070    9.9590    6.3620 H   0  0  0  0  0  0  0  0  0  0  0  0
   43.2960   11.5950    6.3510 H   0  0  0  0  0  0  0  0  0  0  0  0
   42.8810    9.9300    5.7900 H   0  0  0  0  0  0  0  0  0  0  0  0
   43.0370   13.2430    2.6790 H   0  0  0  0  0  0  0  0  0  0  0  0
   40.9530   15.0750    1.7390 H   0  0  0  0  0  0  0  0  0  0  0  0
   42.2560   12.9050   -0.0130 H   0  0  0  0  0  0  0  0  0  0  0  0
   40.5150   13.0390    0.4180 H   0  0  0  0  0  0  0  0  0  0  0  0
   40.9940   13.9060   -1.8950 H   0  0  0  0  0  0  0  0  0  0  0  0
   40.3210   15.1720   -0.8060 H   0  0  0  0  0  0  0  0  0  0  0  0
   42.1990   16.1170   -2.1180 H   0  0  0  0  0  0  0  0  0  0  0  0
   43.2840   14.7910   -1.5650 H   0  0  0  0  0  0  0  0  0  0  0  0
   41.9790   16.9500    0.2070 H   0  0  0  0  0  0  0  0  0  0  0  0
   43.7210   16.8340   -0.2320 H   0  0  0  0  0  0  0  0  0  0  0  0
   43.2510   15.9640    2.0800 H   0  0  0  0  0  0  0  0  0  0  0  0
   43.9260   14.6950    1.0020 H   0  0  0  0  0  0  0  0  0  0  0  0
   37.5700   10.9050    8.9180 H   0  0  0  0  0  0  0  0  0  0  0  0
   35.8440   12.0810   10.2130 H   0  0  0  0  0  0  0  0  0  0  0  0
  2 27  1  0  0  0  0
  2  1  1  0  0  0  0
  3  2  2  0  0  0  0
  4  5  2  0  0  0  0
  4  3  1  0  0  0  0
  5 26  1  0  0  0  0
  6  5  1  0  0  0  0
  7  6  2  0  0  0  0
  8  9  2  0  0  0  0
  8  7  1  0  0  0  0
 10  8  1  0  0  0  0
 11 10  1  0  0  0  0
 11 16  1  0  0  0  0
 12 33  1  0  0  0  0
 12 11  1  0  0  0  0
 13 12  1  0  0  0  0
 13 14  1  0  0  0  0
 14 38  1  0  0  0  0
 14 15  1  0  0  0  0
 15 16  1  0  0  0  0
 15 40  1  0  0  0  0
 16 42  1  0  0  0  0
 16 41  1  0  0  0  0
 17 10  1  0  0  0  0
 18 17  2  0  0  0  0
 19 43  1  0  0  0  0
 19 17  1  0  0  0  0
 20 44  1  0  0  0  0
 20 19  1  0  0  0  0
 21 46  1  0  0  0  0
 21 20  1  0  0  0  0
 22 48  1  0  0  0  0
 22 21  1  0  0  0  0
 23 22  1  0  0  0  0
 23 24  1  0  0  0  0
 24 51  1  0  0  0  0
 24 25  1  0  0  0  0
 25 20  1  0  0  0  0
 25 53  1  0  0  0  0
 26 55  1  0  0  0  0
 26 27  2  0  0  0  0
 27 56  1  0  0  0  0
 28  3  1  0  0  0  0
 29  4  1  0  0  0  0
 30  6  1  0  0  0  0
 31  7  1  0  0  0  0
 32 11  1  0  0  0  0
 34 12  1  0  0  0  0
 35 13  1  0  0  0  0
 36 13  1  0  0  0  0
 37 14  1  0  0  0  0
 39 15  1  0  0  0  0
 45 21  1  0  0  0  0
 47 22  1  0  0  0  0
 49 23  1  0  0  0  0
 50 23  1  0  0  0  0
 52 24  1  0  0  0  0
 54 25  1  0  0  0  0
M  END
