fxr14
 OpenBabel11211618043D

 72 76  0  0  1  0  0  0  0  0999 V2000
   35.5660   14.3530    8.1520 C   0  0  0  0  0  0  0  0  0  0  0  0
   36.2900   13.1960    8.5490 O   0  0  0  0  0  0  0  0  0  0  0  0
   37.1670   12.6500    7.5970 C   0  0  0  0  0  0  0  0  0  0  0  0
   37.3110   13.1650    6.2910 C   0  0  0  0  0  0  0  0  0  0  0  0
   38.2060   12.5650    5.3960 C   0  0  0  0  0  0  0  0  0  0  0  0
   38.9620   11.4420    5.7790 C   0  0  0  0  0  0  0  0  0  0  0  0
   38.7710   10.8930    7.0690 C   0  0  0  0  0  0  0  0  0  0  0  0
   39.4820    9.7510    7.4620 O   0  0  0  0  0  0  0  0  0  0  0  0
   39.9270    9.7670    8.8170 C   0  0  0  0  0  0  0  0  0  0  0  0
   37.8980   11.5220    7.9660 C   0  0  0  0  0  0  0  0  0  0  0  0
   39.9610   10.8790    4.8190 C   0  0  0  0  0  0  0  0  0  0  0  0
   39.8560    9.6670    4.2900 N   0  0  0  0  0  0  0  0  0  0  0  0
   40.9380    9.5230    3.4700 C   0  0  0  0  0  0  0  0  0  0  0  0
   41.3040    8.4470    2.6740 C   0  0  0  0  0  0  0  0  0  0  0  0
   42.4660    8.5210    1.8970 C   0  0  0  0  0  0  0  0  0  0  0  0
   43.2600    9.6730    1.9310 C   0  0  0  0  0  0  0  0  0  0  0  0
   42.8950   10.7570    2.7380 C   0  0  0  0  0  0  0  0  0  0  0  0
   41.7310   10.6830    3.4960 C   0  0  0  0  0  0  0  0  0  0  0  0
   41.0840   11.5590    4.3510 N   0  0  0  0  0  0  0  0  0  0  0  0
   41.5090   12.9270    4.7240 C   0  0  1  0  0  0  0  0  0  0  0  0
   42.5170   13.0750    5.8910 C   0  0  0  0  0  0  0  0  0  0  0  0
   43.8720   12.4020    5.5520 C   0  0  0  0  0  0  0  0  0  0  0  0
   44.9360   12.7250    6.6100 C   0  0  0  0  0  0  0  0  0  0  0  0
   44.4740   12.3090    8.0130 C   0  0  0  0  0  0  0  0  0  0  0  0
   43.1290   12.9580    8.3710 C   0  0  0  0  0  0  0  0  0  0  0  0
   42.0600   12.6560    7.3120 C   0  0  0  0  0  0  0  0  0  0  0  0
   41.7670   13.7640    3.4730 C   0  0  0  0  0  0  0  0  0  0  0  0
   42.8270   14.3560    3.2960 O   0  0  0  0  0  0  0  0  0  0  0  0
   40.7530   13.7970    2.5650 N   0  0  0  0  0  0  0  0  0  0  0  0
   40.6720   14.4500    1.2920 C   0  0  0  0  0  0  0  0  0  0  0  0
   41.6680   14.4510    0.2800 C   0  0  0  0  0  0  0  0  0  0  0  0
   42.9660   13.6820    0.3240 C   0  0  0  0  0  0  0  0  0  0  0  0
   41.4310   15.1340   -0.9240 C   0  0  0  0  0  0  0  0  0  0  0  0
   40.2110   15.7630   -1.1660 C   0  0  0  0  0  0  0  0  0  0  0  0
   39.2040   15.7130   -0.2040 C   0  0  0  0  0  0  0  0  0  0  0  0
   39.4220   15.0630    1.0190 C   0  0  0  0  0  0  0  0  0  0  0  0
   38.2980   15.0250    2.0230 C   0  0  0  0  0  0  0  0  0  0  0  0
   34.9350   14.6860    9.0040 H   0  0  0  0  0  0  0  0  0  0  0  0
   34.8960   14.1250    7.2950 H   0  0  0  0  0  0  0  0  0  0  0  0
   36.2570   15.1830    7.8840 H   0  0  0  0  0  0  0  0  0  0  0  0
   36.7460   14.0180    5.9500 H   0  0  0  0  0  0  0  0  0  0  0  0
   38.3200   12.9870    4.4060 H   0  0  0  0  0  0  0  0  0  0  0  0
   40.7250    9.0230    9.0240 H   0  0  0  0  0  0  0  0  0  0  0  0
   39.0640    9.5220    9.4720 H   0  0  0  0  0  0  0  0  0  0  0  0
   40.2900   10.7830    9.0840 H   0  0  0  0  0  0  0  0  0  0  0  0
   37.7860   11.1550    8.9760 H   0  0  0  0  0  0  0  0  0  0  0  0
   40.6890    7.5590    2.6550 H   0  0  0  0  0  0  0  0  0  0  0  0
   42.7520    7.6870    1.2720 H   0  0  0  0  0  0  0  0  0  0  0  0
   44.1580    9.7260    1.3330 H   0  0  0  0  0  0  0  0  0  0  0  0
   43.5150   11.6380    2.7580 H   0  0  0  0  0  0  0  0  0  0  0  0
   40.5840   13.4020    5.1250 H   0  0  0  0  0  0  0  0  0  0  0  0
   42.7410   14.1670    5.9800 H   0  0  0  0  0  0  0  0  0  0  0  0
   43.7250   11.3020    5.4940 H   0  0  0  0  0  0  0  0  0  0  0  0
   44.2430   12.7480    4.5650 H   0  0  0  0  0  0  0  0  0  0  0  0
   45.8870   12.2070    6.3570 H   0  0  0  0  0  0  0  0  0  0  0  0
   45.1290   13.8210    6.6050 H   0  0  0  0  0  0  0  0  0  0  0  0
   45.2420   12.5900    8.7650 H   0  0  0  0  0  0  0  0  0  0  0  0
   44.3550   11.2020    8.0350 H   0  0  0  0  0  0  0  0  0  0  0  0
   43.2660   14.0600    8.4420 H   0  0  0  0  0  0  0  0  0  0  0  0
   42.7870   12.5880    9.3630 H   0  0  0  0  0  0  0  0  0  0  0  0
   41.1140   13.1730    7.5770 H   0  0  0  0  0  0  0  0  0  0  0  0
   41.8960   11.5570    7.3450 H   0  0  0  0  0  0  0  0  0  0  0  0
   39.8990   13.3430    2.8010 H   0  0  0  0  0  0  0  0  0  0  0  0
   43.7560   14.2810    0.8280 H   0  0  0  0  0  0  0  0  0  0  0  0
   43.3030   13.4590   -0.7100 H   0  0  0  0  0  0  0  0  0  0  0  0
   42.8050   12.7400    0.8900 H   0  0  0  0  0  0  0  0  0  0  0  0
   42.1930   15.1490   -1.6900 H   0  0  0  0  0  0  0  0  0  0  0  0
   40.0400   16.2710   -2.1050 H   0  0  0  0  0  0  0  0  0  0  0  0
   38.2520   16.1840   -0.4040 H   0  0  0  0  0  0  0  0  0  0  0  0
   37.4310   15.6150    1.6540 H   0  0  0  0  0  0  0  0  0  0  0  0
   38.6470   15.4630    2.9830 H   0  0  0  0  0  0  0  0  0  0  0  0
   37.9810   13.9710    2.1750 H   0  0  0  0  0  0  0  0  0  0  0  0
  1  2  1  0  0  0  0
  1 38  1  0  0  0  0
  3 10  1  0  0  0  0
  3  2  1  0  0  0  0
  4  3  2  0  0  0  0
  5  6  2  0  0  0  0
  5  4  1  0  0  0  0
  6  7  1  0  0  0  0
  7  8  1  0  0  0  0
  7 10  2  0  0  0  0
  8  9  1  0  0  0  0
  9 43  1  0  0  0  0
  9 45  1  0  0  0  0
  9 44  1  0  0  0  0
 10 46  1  0  0  0  0
 11  6  1  0  0  0  0
 12 11  2  0  0  0  0
 13 18  1  0  0  0  0
 13 12  1  0  0  0  0
 14 13  2  0  0  0  0
 15 16  2  0  0  0  0
 15 14  1  0  0  0  0
 16 17  1  0  0  0  0
 17 50  1  0  0  0  0
 17 18  2  0  0  0  0
 18 19  1  0  0  0  0
 19 20  1  0  0  0  0
 19 11  1  0  0  0  0
 20 51  1  1  0  0  0
 20 21  1  0  0  0  0
 21 52  1  0  0  0  0
 21 26  1  0  0  0  0
 22 21  1  0  0  0  0
 22 23  1  0  0  0  0
 23 24  1  0  0  0  0
 24 58  1  0  0  0  0
 24 25  1  0  0  0  0
 24 57  1  0  0  0  0
 25 59  1  0  0  0  0
 25 60  1  0  0  0  0
 26 62  1  0  0  0  0
 26 61  1  0  0  0  0
 26 25  1  0  0  0  0
 27 20  1  0  0  0  0
 28 27  2  0  0  0  0
 29 63  1  0  0  0  0
 29 27  1  0  0  0  0
 30 29  1  0  0  0  0
 31 32  1  0  0  0  0
 31 30  2  0  0  0  0
 32 64  1  0  0  0  0
 32 66  1  0  0  0  0
 33 31  1  0  0  0  0
 34 33  2  0  0  0  0
 34 35  1  0  0  0  0
 35 36  2  0  0  0  0
 36 30  1  0  0  0  0
 36 37  1  0  0  0  0
 37 72  1  0  0  0  0
 37 71  1  0  0  0  0
 39  1  1  0  0  0  0
 40  1  1  0  0  0  0
 41  4  1  0  0  0  0
 42  5  1  0  0  0  0
 47 14  1  0  0  0  0
 48 15  1  0  0  0  0
 49 16  1  0  0  0  0
 53 22  1  0  0  0  0
 54 22  1  0  0  0  0
 55 23  1  0  0  0  0
 56 23  1  0  0  0  0
 65 32  1  0  0  0  0
 67 33  1  0  0  0  0
 68 34  1  0  0  0  0
 69 35  1  0  0  0  0
 70 37  1  0  0  0  0
M  END
