fxr31
 OpenBabel11211618043D

 72 76  0  0  1  0  0  0  0  0999 V2000
   39.6960   10.7500    4.7220 C   0  0  0  0  0  0  0  0  0  0  0  0
   40.9440   11.2830    4.4290 N   0  0  0  0  0  0  0  0  0  0  0  0
   41.4720   10.4770    3.4330 C   0  0  0  0  0  0  0  0  0  0  0  0
   40.4840    9.5210    3.1500 C   0  0  0  0  0  0  0  0  0  0  0  0
   39.4070    9.7030    3.9640 N   0  0  0  0  0  0  0  0  0  0  0  0
   40.6820    8.5760    2.1580 C   0  0  0  0  0  0  0  0  0  0  0  0
   41.8790    8.5980    1.4490 C   0  0  0  0  0  0  0  0  0  0  0  0
   42.8650    9.5430    1.7340 C   0  0  0  0  0  0  0  0  0  0  0  0
   42.6760   10.4890    2.7360 C   0  0  0  0  0  0  0  0  0  0  0  0
   44.0340    9.5600    1.0390 F   0  0  0  0  0  0  0  0  0  0  0  0
   42.0690    7.6720    0.4730 F   0  0  0  0  0  0  0  0  0  0  0  0
   41.6010   12.4590    5.0530 C   0  0  2  0  0  0  0  0  0  0  0  0
   41.9720   13.4100    3.9250 C   0  0  0  0  0  0  0  0  0  0  0  0
   43.0320   14.0240    3.9420 O   0  0  0  0  0  0  0  0  0  0  0  0
   41.1050   13.5090    2.8880 N   0  0  0  0  0  0  0  0  0  0  0  0
   41.3620   14.2380    1.6700 C   0  0  1  0  0  0  0  0  0  0  0  0
   42.4460   13.5550    0.8080 C   0  0  0  0  0  0  0  0  0  0  0  0
   42.7690   14.3580   -0.4620 C   0  0  0  0  0  0  0  0  0  0  0  0
   41.4980   14.6740   -1.2780 C   0  0  1  0  0  0  0  0  0  0  0  0
   40.4680   15.4380   -0.4260 C   0  0  0  0  0  0  0  0  0  0  0  0
   40.1110   14.6440    0.8330 C   0  0  0  0  0  0  0  0  0  0  0  0
   41.8210   15.4370   -2.4300 O   0  0  0  0  0  0  0  0  0  0  0  0
   42.7890   12.1970    6.0040 C   0  0  0  0  0  0  0  0  0  0  0  0
   42.4510   11.0100    6.9480 C   0  0  0  0  0  0  0  0  0  0  0  0
   43.5950   10.6750    7.9210 C   0  0  0  0  0  0  0  0  0  0  0  0
   44.0570   11.8940    8.7300 C   0  0  0  0  0  0  0  0  0  0  0  0
   44.3890   13.0680    7.8080 C   0  0  0  0  0  0  0  0  0  0  0  0
   43.2020   13.4050    6.8960 C   0  0  0  0  0  0  0  0  0  0  0  0
   38.7800   11.2540    5.7780 C   0  0  0  0  0  0  0  0  0  0  0  0
   38.6560   10.5970    7.0250 C   0  0  0  0  0  0  0  0  0  0  0  0
   37.8170   11.0640    7.9510 N   0  0  0  0  0  0  0  0  0  0  0  0
   37.0590   12.1430    7.7530 C   0  0  0  0  0  0  0  0  0  0  0  0
   37.1400   12.8580    6.5510 C   0  0  0  0  0  0  0  0  0  0  0  0
   38.0030   12.4030    5.5490 C   0  0  0  0  0  0  0  0  0  0  0  0
   36.1780   12.5960    8.7410 O   0  0  0  0  0  0  0  0  0  0  0  0
   36.1870   11.8060    9.9260 C   0  0  0  0  0  0  0  0  0  0  0  0
   39.4430    9.4560    7.2810 O   0  0  0  0  0  0  0  0  0  0  0  0
   39.2980    8.9090    8.5880 C   0  0  0  0  0  0  0  0  0  0  0  0
   39.9200    7.8440    1.9420 H   0  0  0  0  0  0  0  0  0  0  0  0
   43.4420   11.2170    2.9560 H   0  0  0  0  0  0  0  0  0  0  0  0
   40.8470   13.0080    5.6590 H   0  0  0  0  0  0  0  0  0  0  0  0
   40.2620   12.9780    2.8880 H   0  0  0  0  0  0  0  0  0  0  0  0
   41.8070   15.2010    2.0180 H   0  0  0  0  0  0  0  0  0  0  0  0
   43.3720   13.4270    1.4090 H   0  0  0  0  0  0  0  0  0  0  0  0
   42.0840   12.5440    0.5170 H   0  0  0  0  0  0  0  0  0  0  0  0
   43.4860   13.7820   -1.0880 H   0  0  0  0  0  0  0  0  0  0  0  0
   43.2600   15.3120   -0.1670 H   0  0  0  0  0  0  0  0  0  0  0  0
   41.0450   13.7160   -1.6180 H   0  0  0  0  0  0  0  0  0  0  0  0
   40.8860   16.4250   -0.1270 H   0  0  0  0  0  0  0  0  0  0  0  0
   39.5440   15.6180   -1.0190 H   0  0  0  0  0  0  0  0  0  0  0  0
   39.5830   13.7470    0.4520 H   0  0  0  0  0  0  0  0  0  0  0  0
   39.4080   15.2230    1.4670 H   0  0  0  0  0  0  0  0  0  0  0  0
   42.2150   16.2490   -2.1020 H   0  0  0  0  0  0  0  0  0  0  0  0
   43.6750   11.9010    5.3960 H   0  0  0  0  0  0  0  0  0  0  0  0
   41.5420   11.2660    7.5350 H   0  0  0  0  0  0  0  0  0  0  0  0
   42.2300   10.1010    6.3490 H   0  0  0  0  0  0  0  0  0  0  0  0
   43.2710    9.8690    8.6150 H   0  0  0  0  0  0  0  0  0  0  0  0
   44.4580   10.2940    7.3310 H   0  0  0  0  0  0  0  0  0  0  0  0
   44.9450   11.6300    9.3450 H   0  0  0  0  0  0  0  0  0  0  0  0
   43.2380   12.2020    9.4170 H   0  0  0  0  0  0  0  0  0  0  0  0
   45.2650   12.8020    7.1750 H   0  0  0  0  0  0  0  0  0  0  0  0
   44.6600   13.9590    8.4150 H   0  0  0  0  0  0  0  0  0  0  0  0
   43.5180   14.2950    6.3240 H   0  0  0  0  0  0  0  0  0  0  0  0
   42.3320   13.7030    7.5200 H   0  0  0  0  0  0  0  0  0  0  0  0
   36.5290   13.7340    6.3940 H   0  0  0  0  0  0  0  0  0  0  0  0
   38.0640   12.9350    4.6110 H   0  0  0  0  0  0  0  0  0  0  0  0
   35.4660   12.2430   10.6500 H   0  0  0  0  0  0  0  0  0  0  0  0
   37.1920   11.7950   10.4040 H   0  0  0  0  0  0  0  0  0  0  0  0
   35.8680   10.7650    9.7010 H   0  0  0  0  0  0  0  0  0  0  0  0
   39.9620    8.0270    8.7210 H   0  0  0  0  0  0  0  0  0  0  0  0
   38.2460    8.5780    8.7210 H   0  0  0  0  0  0  0  0  0  0  0  0
   39.5240    9.6710    9.3660 H   0  0  0  0  0  0  0  0  0  0  0  0
  1 29  1  0  0  0  0
  2  1  1  0  0  0  0
  2 12  1  0  0  0  0
  3  2  1  0  0  0  0
  4  3  1  0  0  0  0
  4  5  1  0  0  0  0
  5  1  2  0  0  0  0
  6  4  2  0  0  0  0
  7  8  2  0  0  0  0
  7  6  1  0  0  0  0
  8  9  1  0  0  0  0
  9 40  1  0  0  0  0
  9  3  2  0  0  0  0
 10  8  1  0  0  0  0
 11  7  1  0  0  0  0
 12 41  1  1  0  0  0
 12 23  1  0  0  0  0
 13 14  2  0  0  0  0
 13 12  1  0  0  0  0
 15 13  1  0  0  0  0
 16 43  1  1  0  0  0
 16 15  1  0  0  0  0
 17 44  1  0  0  0  0
 17 16  1  0  0  0  0
 18 47  1  0  0  0  0
 18 17  1  0  0  0  0
 19 48  1  6  0  0  0
 19 18  1  0  0  0  0
 19 20  1  0  0  0  0
 20 49  1  0  0  0  0
 20 21  1  0  0  0  0
 21 52  1  0  0  0  0
 21 16  1  0  0  0  0
 22 53  1  0  0  0  0
 22 19  1  0  0  0  0
 23 28  1  0  0  0  0
 23 24  1  0  0  0  0
 24 55  1  0  0  0  0
 24 25  1  0  0  0  0
 25 57  1  0  0  0  0
 25 26  1  0  0  0  0
 26 59  1  0  0  0  0
 26 60  1  0  0  0  0
 27 62  1  0  0  0  0
 27 26  1  0  0  0  0
 28 64  1  0  0  0  0
 28 27  1  0  0  0  0
 29 30  1  0  0  0  0
 30 37  1  0  0  0  0
 30 31  2  0  0  0  0
 32 31  1  0  0  0  0
 32 35  1  0  0  0  0
 33 32  2  0  0  0  0
 34 29  2  0  0  0  0
 34 33  1  0  0  0  0
 35 36  1  0  0  0  0
 36 68  1  0  0  0  0
 36 67  1  0  0  0  0
 37 38  1  0  0  0  0
 38 71  1  0  0  0  0
 38 70  1  0  0  0  0
 38 72  1  0  0  0  0
 39  6  1  0  0  0  0
 42 15  1  0  0  0  0
 45 17  1  0  0  0  0
 46 18  1  0  0  0  0
 50 20  1  0  0  0  0
 51 21  1  0  0  0  0
 54 23  1  0  0  0  0
 56 24  1  0  0  0  0
 58 25  1  0  0  0  0
 61 27  1  0  0  0  0
 63 28  1  0  0  0  0
 65 33  1  0  0  0  0
 66 34  1  0  0  0  0
 69 36  1  0  0  0  0
M  END
