fxr1
 OpenBabel11211618043D

 66 67  0  0  0  0  0  0  0  0999 V2000
   43.0830    8.9290   -0.6580 C   0  0  0  0  0  0  0  0  0  0  0  0
   43.4800    8.5770    0.6630 O   0  0  0  0  0  0  0  0  0  0  0  0
   42.9750    9.4490    1.6310 C   0  0  0  0  0  0  0  0  0  0  0  0
   41.5930    9.6340    1.7040 C   0  0  0  0  0  0  0  0  0  0  0  0
   41.0410   10.4680    2.6750 C   0  0  0  0  0  0  0  0  0  0  0  0
   41.8590   11.0790    3.6450 C   0  0  0  0  0  0  0  0  0  0  0  0
   43.2440   10.8490    3.6000 C   0  0  0  0  0  0  0  0  0  0  0  0
   43.8160   10.0520    2.5910 C   0  0  0  0  0  0  0  0  0  0  0  0
   45.2030    9.8280    2.5400 O   0  0  0  0  0  0  0  0  0  0  0  0
   45.8370    9.7860    3.8160 C   0  0  0  0  0  0  0  0  0  0  0  0
   41.3470   11.9320    4.6710 N   0  0  0  0  0  0  0  0  0  0  0  0
   40.3420   12.9580    4.2240 C   0  0  0  0  0  0  0  0  0  0  0  0
   40.8670   14.0730    3.3530 C   0  0  0  0  0  0  0  0  0  0  0  0
   41.3710   15.0830    3.8440 O   0  0  0  0  0  0  0  0  0  0  0  0
   40.7760   13.8690    2.0200 N   0  0  0  0  0  0  0  0  0  0  0  0
   41.3160   14.7500    1.0140 C   0  0  0  0  0  0  0  0  0  0  0  0
   40.2370   15.1220   -0.0290 C   0  0  0  0  0  0  0  0  0  0  0  0
   40.7490   16.2110   -0.9990 C   0  0  0  0  0  0  0  0  0  0  0  0
   38.9550   15.6430    0.6700 C   0  0  0  0  0  0  0  0  0  0  0  0
   42.6140   14.1350    0.4450 C   0  0  0  0  0  0  0  0  0  0  0  0
   42.3820   12.8190   -0.3240 C   0  0  0  0  0  0  0  0  0  0  0  0
   43.7430   14.0460    1.4970 C   0  0  0  0  0  0  0  0  0  0  0  0
   41.0540   11.2990    6.2010 S   0  0  0  0  0  0  0  0  0  0  0  0
   39.7760   11.7240    6.7110 O   0  0  0  0  0  0  0  0  0  0  0  0
   41.4360    9.9130    6.2940 O   0  0  0  0  0  0  0  0  0  0  0  0
   42.2290   12.1960    7.1810 C   0  0  0  0  0  0  0  0  0  0  0  0
   43.5460   11.7230    7.3560 C   0  0  0  0  0  0  0  0  0  0  0  0
   44.4720   12.4500    8.1130 C   0  0  0  0  0  0  0  0  0  0  0  0
   44.1000   13.6640    8.7080 C   0  0  0  0  0  0  0  0  0  0  0  0
   45.0870   14.4340    9.5370 C   0  0  0  0  0  0  0  0  0  0  0  0
   42.7930   14.1430    8.5390 C   0  0  0  0  0  0  0  0  0  0  0  0
   41.8670   13.4200    7.7770 C   0  0  0  0  0  0  0  0  0  0  0  0
   42.0210    8.6360   -0.8000 H   0  0  0  0  0  0  0  0  0  0  0  0
   43.6920    8.3980   -1.4200 H   0  0  0  0  0  0  0  0  0  0  0  0
   43.1640   10.0280   -0.8160 H   0  0  0  0  0  0  0  0  0  0  0  0
   40.9480    9.1540    0.9810 H   0  0  0  0  0  0  0  0  0  0  0  0
   39.9750   10.6270    2.6610 H   0  0  0  0  0  0  0  0  0  0  0  0
   43.8720   11.3160    4.3440 H   0  0  0  0  0  0  0  0  0  0  0  0
   46.8330    9.3080    3.7010 H   0  0  0  0  0  0  0  0  0  0  0  0
   45.2490    9.1850    4.5450 H   0  0  0  0  0  0  0  0  0  0  0  0
   45.9900   10.8130    4.2110 H   0  0  0  0  0  0  0  0  0  0  0  0
   39.8980   13.4400    5.1250 H   0  0  0  0  0  0  0  0  0  0  0  0
   39.5180   12.4320    3.6920 H   0  0  0  0  0  0  0  0  0  0  0  0
   40.3560   13.0420    1.6580 H   0  0  0  0  0  0  0  0  0  0  0  0
   41.5910   15.6960    1.5400 H   0  0  0  0  0  0  0  0  0  0  0  0
   39.9360   14.2390   -0.6290 H   0  0  0  0  0  0  0  0  0  0  0  0
   41.0960   17.1000   -0.4320 H   0  0  0  0  0  0  0  0  0  0  0  0
   39.9260   16.5310   -1.6740 H   0  0  0  0  0  0  0  0  0  0  0  0
   41.5810   15.8460   -1.6290 H   0  0  0  0  0  0  0  0  0  0  0  0
   38.2100   15.9850   -0.0780 H   0  0  0  0  0  0  0  0  0  0  0  0
   39.1790   16.4670    1.3780 H   0  0  0  0  0  0  0  0  0  0  0  0
   38.4950   14.8210    1.2600 H   0  0  0  0  0  0  0  0  0  0  0  0
   42.9900   14.8440   -0.3350 H   0  0  0  0  0  0  0  0  0  0  0  0
   43.3310   12.4300   -0.7420 H   0  0  0  0  0  0  0  0  0  0  0  0
   41.6850   12.9980   -1.1700 H   0  0  0  0  0  0  0  0  0  0  0  0
   41.9330   12.0530    0.3430 H   0  0  0  0  0  0  0  0  0  0  0  0
   43.5100   13.3010    2.2830 H   0  0  0  0  0  0  0  0  0  0  0  0
   43.9240   15.0320    1.9730 H   0  0  0  0  0  0  0  0  0  0  0  0
   44.6820   13.7240    1.0000 H   0  0  0  0  0  0  0  0  0  0  0  0
   43.8560   10.7910    6.9050 H   0  0  0  0  0  0  0  0  0  0  0  0
   45.4760   12.0740    8.2400 H   0  0  0  0  0  0  0  0  0  0  0  0
   46.1210   14.1390    9.2550 H   0  0  0  0  0  0  0  0  0  0  0  0
   44.9090   14.2030   10.6090 H   0  0  0  0  0  0  0  0  0  0  0  0
   44.9550   15.5230    9.3600 H   0  0  0  0  0  0  0  0  0  0  0  0
   42.4980   15.0770    8.9960 H   0  0  0  0  0  0  0  0  0  0  0  0
   40.8680   13.8120    7.6530 H   0  0  0  0  0  0  0  0  0  0  0  0
  1  2  1  0  0  0  0
  2  3  1  0  0  0  0
  3  4  2  0  0  0  0
  3  8  1  0  0  0  0
  4  5  1  0  0  0  0
  5  6  2  0  0  0  0
  6 11  1  0  0  0  0
  7  6  1  0  0  0  0
  7 38  1  0  0  0  0
  8  7  2  0  0  0  0
  9  8  1  0  0  0  0
  9 10  1  0  0  0  0
 10 41  1  0  0  0  0
 10 40  1  0  0  0  0
 11 23  1  0  0  0  0
 12 11  1  0  0  0  0
 12 42  1  0  0  0  0
 13 14  2  0  0  0  0
 13 12  1  0  0  0  0
 15 13  1  0  0  0  0
 16 45  1  0  0  0  0
 16 15  1  0  0  0  0
 17 19  1  0  0  0  0
 17 16  1  0  0  0  0
 18 47  1  0  0  0  0
 18 17  1  0  0  0  0
 19 52  1  0  0  0  0
 19 51  1  0  0  0  0
 20 16  1  0  0  0  0
 20 22  1  0  0  0  0
 21 56  1  0  0  0  0
 21 20  1  0  0  0  0
 22 58  1  0  0  0  0
 22 57  1  0  0  0  0
 23 25  2  0  0  0  0
 23 24  2  0  0  0  0
 23 26  1  0  0  0  0
 26 27  2  0  0  0  0
 26 32  1  0  0  0  0
 27 28  1  0  0  0  0
 28 61  1  0  0  0  0
 28 29  2  0  0  0  0
 29 30  1  0  0  0  0
 30 63  1  0  0  0  0
 31 29  1  0  0  0  0
 31 65  1  0  0  0  0
 32 31  2  0  0  0  0
 33  1  1  0  0  0  0
 34  1  1  0  0  0  0
 35  1  1  0  0  0  0
 36  4  1  0  0  0  0
 37  5  1  0  0  0  0
 39 10  1  0  0  0  0
 43 12  1  0  0  0  0
 44 15  1  0  0  0  0
 46 17  1  0  0  0  0
 48 18  1  0  0  0  0
 49 18  1  0  0  0  0
 50 19  1  0  0  0  0
 53 20  1  0  0  0  0
 54 21  1  0  0  0  0
 55 21  1  0  0  0  0
 59 22  1  0  0  0  0
 60 27  1  0  0  0  0
 62 30  1  0  0  0  0
 64 30  1  0  0  0  0
 66 32  1  0  0  0  0
M  END
