fxr19
 OpenBabel11211618043D

 62 66  0  0  1  0  0  0  0  0999 V2000
   40.2270   13.6400    2.5510 C   0  0  2  0  0  0  0  0  0  0  0  0
   41.5560   14.3240    2.1340 C   0  0  0  0  0  0  0  0  0  0  0  0
   41.4020   15.0630    0.8000 C   0  0  0  0  0  0  0  0  0  0  0  0
   40.2060   16.0130    0.8740 C   0  0  0  0  0  0  0  0  0  0  0  0
   38.9700   15.2800    1.4070 C   0  0  0  0  0  0  0  0  0  0  0  0
   39.2700   14.6890    2.6630 O   0  0  0  0  0  0  0  0  0  0  0  0
   40.4100   12.8040    3.8380 C   0  0  1  0  0  0  0  0  0  0  0  0
   39.1090   12.1840    4.3490 C   0  0  0  0  0  0  0  0  0  0  0  0
   38.8500   10.9930    4.1800 O   0  0  0  0  0  0  0  0  0  0  0  0
   38.2800   12.9940    5.0410 N   0  0  0  0  0  0  0  0  0  0  0  0
   37.0400   12.6270    5.6570 C   0  0  0  0  0  0  0  0  0  0  0  0
   36.1560   13.8780    5.8490 C   0  0  0  0  0  0  0  0  0  0  0  0
   34.8290   13.5430    6.5420 C   0  0  0  0  0  0  0  0  0  0  0  0
   35.0530   12.8320    7.8860 C   0  0  0  0  0  0  0  0  0  0  0  0
   35.9530   11.5980    7.7240 C   0  0  0  0  0  0  0  0  0  0  0  0
   37.2740   11.9430    7.0220 C   0  0  0  0  0  0  0  0  0  0  0  0
   41.5020   11.8030    3.8850 N   0  0  0  0  0  0  0  0  0  0  0  0
   41.8070   10.9090    2.8770 C   0  0  0  0  0  0  0  0  0  0  0  0
   41.2840   10.6860    1.6100 C   0  0  0  0  0  0  0  0  0  0  0  0
   41.8300    9.6660    0.8170 C   0  0  0  0  0  0  0  0  0  0  0  0
   42.8690    8.8850    1.3350 C   0  0  0  0  0  0  0  0  0  0  0  0
   43.3840    9.0990    2.6080 C   0  0  0  0  0  0  0  0  0  0  0  0
   42.8550   10.1200    3.3740 C   0  0  0  0  0  0  0  0  0  0  0  0
   43.2000   10.5180    4.6260 N   0  0  0  0  0  0  0  0  0  0  0  0
   42.4000   11.5300    4.9190 C   0  0  0  0  0  0  0  0  0  0  0  0
   42.4830   12.2400    6.2240 C   0  0  0  0  0  0  0  0  0  0  0  0
   43.7100   12.7910    6.6430 C   0  0  0  0  0  0  0  0  0  0  0  0
   43.8270   13.3800    7.9040 C   0  0  0  0  0  0  0  0  0  0  0  0
   42.7110   13.4630    8.7420 C   0  0  0  0  0  0  0  0  0  0  0  0
   41.4770   12.9460    8.3250 C   0  0  0  0  0  0  0  0  0  0  0  0
   41.3620   12.3320    7.0710 C   0  0  0  0  0  0  0  0  0  0  0  0
   42.8590   14.2360   10.2900 Cl  0  0  0  0  0  0  0  0  0  0  0  0
   43.4130    7.8820    0.5970 F   0  0  0  0  0  0  0  0  0  0  0  0
   41.2090    9.3940   -0.7880 Cl  0  0  0  0  0  0  0  0  0  0  0  0
   39.8830   12.9810    1.7310 H   0  0  0  0  0  0  0  0  0  0  0  0
   41.8330   15.0600    2.9210 H   0  0  0  0  0  0  0  0  0  0  0  0
   42.3900   13.6020    2.0640 H   0  0  0  0  0  0  0  0  0  0  0  0
   42.3300   15.6230    0.5560 H   0  0  0  0  0  0  0  0  0  0  0  0
   41.2200   14.3220   -0.0090 H   0  0  0  0  0  0  0  0  0  0  0  0
   39.9970   16.4540   -0.1230 H   0  0  0  0  0  0  0  0  0  0  0  0
   40.4520   16.8420    1.5760 H   0  0  0  0  0  0  0  0  0  0  0  0
   38.6420   14.5020    0.6840 H   0  0  0  0  0  0  0  0  0  0  0  0
   38.1350   16.0030    1.5380 H   0  0  0  0  0  0  0  0  0  0  0  0
   40.6830   13.5590    4.6120 H   0  0  0  0  0  0  0  0  0  0  0  0
   38.5420   13.9470    5.1800 H   0  0  0  0  0  0  0  0  0  0  0  0
   36.4850   11.9190    4.9980 H   0  0  0  0  0  0  0  0  0  0  0  0
   36.7100   14.6210    6.4640 H   0  0  0  0  0  0  0  0  0  0  0  0
   35.9510   14.3390    4.8580 H   0  0  0  0  0  0  0  0  0  0  0  0
   34.2420   14.4730    6.7030 H   0  0  0  0  0  0  0  0  0  0  0  0
   34.2390   12.8730    5.8780 H   0  0  0  0  0  0  0  0  0  0  0  0
   34.0760   12.5350    8.3240 H   0  0  0  0  0  0  0  0  0  0  0  0
   35.5450   13.5430    8.5870 H   0  0  0  0  0  0  0  0  0  0  0  0
   35.4130   10.8410    7.1120 H   0  0  0  0  0  0  0  0  0  0  0  0
   36.1600   11.1510    8.7200 H   0  0  0  0  0  0  0  0  0  0  0  0
   37.8670   11.0150    6.8720 H   0  0  0  0  0  0  0  0  0  0  0  0
   37.8640   12.6260    7.6710 H   0  0  0  0  0  0  0  0  0  0  0  0
   40.4850   11.2990    1.2210 H   0  0  0  0  0  0  0  0  0  0  0  0
   44.1860    8.4900    2.9930 H   0  0  0  0  0  0  0  0  0  0  0  0
   44.5820   12.7350    6.0060 H   0  0  0  0  0  0  0  0  0  0  0  0
   44.7760   13.7840    8.2270 H   0  0  0  0  0  0  0  0  0  0  0  0
   40.6160   13.0180    8.9720 H   0  0  0  0  0  0  0  0  0  0  0  0
   40.4100   11.9200    6.7660 H   0  0  0  0  0  0  0  0  0  0  0  0
  1 35  1  6  0  0  0
  1  6  1  0  0  0  0
  1  7  1  0  0  0  0
  2  1  1  0  0  0  0
  2 36  1  0  0  0  0
  3  4  1  0  0  0  0
  3  2  1  0  0  0  0
  4  5  1  0  0  0  0
  4 41  1  0  0  0  0
  5 43  1  0  0  0  0
  5  6  1  0  0  0  0
  7 17  1  0  0  0  0
  7  8  1  0  0  0  0
  7 44  1  1  0  0  0
  8 10  1  0  0  0  0
  9  8  2  0  0  0  0
 10 45  1  0  0  0  0
 10 11  1  0  0  0  0
 11 12  1  0  0  0  0
 11 16  1  0  0  0  0
 12 47  1  0  0  0  0
 12 13  1  0  0  0  0
 13 49  1  0  0  0  0
 13 14  1  0  0  0  0
 14 51  1  0  0  0  0
 14 52  1  0  0  0  0
 15 14  1  0  0  0  0
 15 54  1  0  0  0  0
 16 56  1  0  0  0  0
 16 15  1  0  0  0  0
 17 25  1  0  0  0  0
 18 23  1  0  0  0  0
 18 17  1  0  0  0  0
 19 18  2  0  0  0  0
 20 21  2  0  0  0  0
 20 19  1  0  0  0  0
 21 22  1  0  0  0  0
 22 58  1  0  0  0  0
 22 23  2  0  0  0  0
 23 24  1  0  0  0  0
 24 25  2  0  0  0  0
 25 26  1  0  0  0  0
 26 27  2  0  0  0  0
 26 31  1  0  0  0  0
 27 28  1  0  0  0  0
 28 60  1  0  0  0  0
 28 29  2  0  0  0  0
 29 32  1  0  0  0  0
 30 29  1  0  0  0  0
 30 61  1  0  0  0  0
 31 30  2  0  0  0  0
 33 21  1  0  0  0  0
 34 20  1  0  0  0  0
 37  2  1  0  0  0  0
 38  3  1  0  0  0  0
 39  3  1  0  0  0  0
 40  4  1  0  0  0  0
 42  5  1  0  0  0  0
 46 11  1  0  0  0  0
 48 12  1  0  0  0  0
 50 13  1  0  0  0  0
 53 15  1  0  0  0  0
 55 16  1  0  0  0  0
 57 19  1  0  0  0  0
 59 27  1  0  0  0  0
 62 31  1  0  0  0  0
M  END
