fxr17
 OpenBabel11211618043D

 61 65  0  0  0  0  0  0  0  0999 V2000
   34.3480   19.4490   -2.4510 C   0  0  0  0  0  0  0  0  0  0  0  0
   35.5400   20.1530   -1.8000 C   0  0  0  0  0  0  0  0  0  0  0  0
   36.4780   19.1540   -1.3690 O   0  0  0  0  0  0  0  0  0  0  0  0
   36.2140   18.6180   -0.1760 C   0  0  0  0  0  0  0  0  0  0  0  0
   35.2610   18.9030    0.5300 O   0  0  0  0  0  0  0  0  0  0  0  0
   37.2540   17.6150    0.2210 C   0  0  0  0  0  0  0  0  0  0  0  0
   37.2590   17.0540    1.5110 C   0  0  0  0  0  0  0  0  0  0  0  0
   38.2230   16.1150    1.8740 C   0  0  0  0  0  0  0  0  0  0  0  0
   39.1990   15.7120    0.9550 C   0  0  0  0  0  0  0  0  0  0  0  0
   40.2230   14.7680    1.2300 N   0  0  0  0  0  0  0  0  0  0  0  0
   40.6100   14.2370    2.4160 C   0  0  0  0  0  0  0  0  0  0  0  0
   40.0930   14.4760    3.5060 O   0  0  0  0  0  0  0  0  0  0  0  0
   41.7850   13.3470    2.3360 C   0  0  0  0  0  0  0  0  0  0  0  0
   42.1360   12.3810    3.2290 C   0  0  0  0  0  0  0  0  0  0  0  0
   41.4140   11.8450    4.4520 C   0  0  0  0  0  0  0  0  0  0  0  0
   42.3170   11.0540    5.3520 N   0  0  0  0  0  0  0  0  0  0  0  0
   43.2090   10.1350    4.5670 C   0  0  0  0  0  0  0  0  0  0  0  0
   44.1280   10.8550    3.5540 C   0  0  0  0  0  0  0  0  0  0  0  0
   43.3660   11.8870    2.7950 C   0  0  0  0  0  0  0  0  0  0  0  0
   43.7700   12.4330    1.6690 N   0  0  0  0  0  0  0  0  0  0  0  0
   42.7880   13.3260    1.3680 N   0  0  0  0  0  0  0  0  0  0  0  0
   42.8470   13.9660    0.0930 C   0  0  0  0  0  0  0  0  0  0  0  0
   43.0130   15.3700   -0.0330 C   0  0  0  0  0  0  0  0  0  0  0  0
   43.1320   15.9830   -1.2840 C   0  0  0  0  0  0  0  0  0  0  0  0
   43.0850   15.2130   -2.4490 C   0  0  0  0  0  0  0  0  0  0  0  0
   42.9320   13.8270   -2.3610 C   0  0  0  0  0  0  0  0  0  0  0  0
   42.8280   13.2120   -1.1090 C   0  0  0  0  0  0  0  0  0  0  0  0
   41.5830   10.3340    6.6730 S   0  0  0  0  0  0  0  0  0  0  0  0
   42.4260    9.3090    7.2320 O   0  0  0  0  0  0  0  0  0  0  0  0
   40.1830   10.0980    6.4230 O   0  0  0  0  0  0  0  0  0  0  0  0
   41.6400   11.5760    7.9330 C   0  0  0  0  0  0  0  0  0  0  0  0
   42.8020   12.0620    8.4620 C   0  0  0  0  0  0  0  0  0  0  0  0
   42.5580   13.1060    9.3320 C   0  0  0  0  0  0  0  0  0  0  0  0
   41.2260   13.4330    9.4450 C   0  0  0  0  0  0  0  0  0  0  0  0
   40.2540   12.4340    8.4350 S   0  0  0  0  0  0  0  0  0  0  0  0
   39.2020   16.2710   -0.3350 C   0  0  0  0  0  0  0  0  0  0  0  0
   38.2300   17.2090   -0.7040 C   0  0  0  0  0  0  0  0  0  0  0  0
   33.8370   18.7920   -1.7160 H   0  0  0  0  0  0  0  0  0  0  0  0
   34.6840   18.8280   -3.3090 H   0  0  0  0  0  0  0  0  0  0  0  0
   33.6140   20.1960   -2.8250 H   0  0  0  0  0  0  0  0  0  0  0  0
   35.2040   20.7600   -0.9320 H   0  0  0  0  0  0  0  0  0  0  0  0
   36.0130   20.8250   -2.5520 H   0  0  0  0  0  0  0  0  0  0  0  0
   36.5110   17.3430    2.2350 H   0  0  0  0  0  0  0  0  0  0  0  0
   38.1880   15.7250    2.8770 H   0  0  0  0  0  0  0  0  0  0  0  0
   40.7170   14.4960    0.4100 H   0  0  0  0  0  0  0  0  0  0  0  0
   40.5830   11.1920    4.1060 H   0  0  0  0  0  0  0  0  0  0  0  0
   40.9780   12.6900    5.0270 H   0  0  0  0  0  0  0  0  0  0  0  0
   42.5640    9.4110    4.0190 H   0  0  0  0  0  0  0  0  0  0  0  0
   43.8650    9.5570    5.2510 H   0  0  0  0  0  0  0  0  0  0  0  0
   44.5690   10.1120    2.8560 H   0  0  0  0  0  0  0  0  0  0  0  0
   44.9550   11.3590    4.1000 H   0  0  0  0  0  0  0  0  0  0  0  0
   43.0490   15.9930    0.8500 H   0  0  0  0  0  0  0  0  0  0  0  0
   43.2590   17.0540   -1.3490 H   0  0  0  0  0  0  0  0  0  0  0  0
   43.1740   15.6880   -3.4150 H   0  0  0  0  0  0  0  0  0  0  0  0
   42.9090   13.2290   -3.2600 H   0  0  0  0  0  0  0  0  0  0  0  0
   42.7540   12.1350   -1.0860 H   0  0  0  0  0  0  0  0  0  0  0  0
   43.7900   11.6960    8.2220 H   0  0  0  0  0  0  0  0  0  0  0  0
   43.3400   13.6240    9.8700 H   0  0  0  0  0  0  0  0  0  0  0  0
   40.7700   14.2130   10.0420 H   0  0  0  0  0  0  0  0  0  0  0  0
   39.9530   15.9690   -1.0500 H   0  0  0  0  0  0  0  0  0  0  0  0
   38.2420   17.6270   -1.7000 H   0  0  0  0  0  0  0  0  0  0  0  0
  1  2  1  0  0  0  0
  1 38  1  0  0  0  0
  2  3  1  0  0  0  0
  2 41  1  0  0  0  0
  3  4  1  0  0  0  0
  4  6  1  0  0  0  0
  4  5  2  0  0  0  0
  6  7  2  0  0  0  0
  7  8  1  0  0  0  0
  7 43  1  0  0  0  0
  8 44  1  0  0  0  0
  9 10  1  0  0  0  0
  9  8  2  0  0  0  0
 10 11  1  0  0  0  0
 11 12  2  0  0  0  0
 13 11  1  0  0  0  0
 13 14  2  0  0  0  0
 14 15  1  0  0  0  0
 15 47  1  0  0  0  0
 15 16  1  0  0  0  0
 16 28  1  0  0  0  0
 17 49  1  0  0  0  0
 17 16  1  0  0  0  0
 18 51  1  0  0  0  0
 18 17  1  0  0  0  0
 19 14  1  0  0  0  0
 19 18  1  0  0  0  0
 20 19  2  0  0  0  0
 21 20  1  0  0  0  0
 21 13  1  0  0  0  0
 22 21  1  0  0  0  0
 23 22  1  0  0  0  0
 23 52  1  0  0  0  0
 24 23  2  0  0  0  0
 25 26  2  0  0  0  0
 25 24  1  0  0  0  0
 26 27  1  0  0  0  0
 27 56  1  0  0  0  0
 27 22  2  0  0  0  0
 28 29  2  0  0  0  0
 28 31  1  0  0  0  0
 30 28  2  0  0  0  0
 31 35  1  0  0  0  0
 31 32  2  0  0  0  0
 32 33  1  0  0  0  0
 33 34  2  0  0  0  0
 33 58  1  0  0  0  0
 34 59  1  0  0  0  0
 35 34  1  0  0  0  0
 36  9  1  0  0  0  0
 37 36  2  0  0  0  0
 37  6  1  0  0  0  0
 39  1  1  0  0  0  0
 40  1  1  0  0  0  0
 42  2  1  0  0  0  0
 45 10  1  0  0  0  0
 46 15  1  0  0  0  0
 48 17  1  0  0  0  0
 50 18  1  0  0  0  0
 53 24  1  0  0  0  0
 54 25  1  0  0  0  0
 55 26  1  0  0  0  0
 57 32  1  0  0  0  0
 60 36  1  0  0  0  0
 61 37  1  0  0  0  0
M  END
