fxr20
 OpenBabel11211618043D

 71 75  0  0  1  0  0  0  0  0999 V2000
   44.1570   13.5440    9.0010 C   0  0  0  0  0  0  0  0  0  0  0  0
   43.0850   14.4030    8.7750 C   0  0  0  0  0  0  0  0  0  0  0  0
   42.2070   14.2270    7.7090 C   0  0  0  0  0  0  0  0  0  0  0  0
   42.4260   13.1540    6.8520 C   0  0  0  0  0  0  0  0  0  0  0  0
   43.5090   12.2810    7.0540 C   0  0  0  0  0  0  0  0  0  0  0  0
   44.3680   12.4720    8.1240 C   0  0  0  0  0  0  0  0  0  0  0  0
   43.5270   11.3160    6.0880 N   0  0  0  0  0  0  0  0  0  0  0  0
   42.4890   11.5820    5.3130 C   0  0  0  0  0  0  0  0  0  0  0  0
   41.7650   12.6820    5.7400 N   0  0  0  0  0  0  0  0  0  0  0  0
   40.5650   13.2840    5.1480 C   0  0  2  0  0  0  0  0  0  0  0  0
   39.3580   12.5140    5.6640 C   0  0  0  0  0  0  0  0  0  0  0  0
   39.2580   11.2940    5.5330 O   0  0  0  0  0  0  0  0  0  0  0  0
   38.4060   13.2440    6.2910 N   0  0  0  0  0  0  0  0  0  0  0  0
   37.1980   12.6820    6.8340 C   0  0  0  0  0  0  0  0  0  0  0  0
   36.0750   13.7390    6.9610 C   0  0  0  0  0  0  0  0  0  0  0  0
   34.7990   13.1700    7.5960 C   0  0  0  0  0  0  0  0  0  0  0  0
   35.0830   12.5370    8.9640 C   0  0  0  0  0  0  0  0  0  0  0  0
   36.1860   11.4730    8.8600 C   0  0  0  0  0  0  0  0  0  0  0  0
   37.4630   12.0340    8.2140 C   0  0  0  0  0  0  0  0  0  0  0  0
   40.5560   13.5120    3.6330 C   0  0  0  0  0  0  0  0  0  0  0  0
   41.7870   14.3650    3.2150 C   0  0  0  0  0  0  0  0  0  0  0  0
   41.8100   14.6550    1.7070 C   0  0  0  0  0  0  0  0  0  0  0  0
   40.5100   15.3190    1.2410 C   0  0  0  0  0  0  0  0  0  0  0  0
   39.2860   14.4880    1.6540 C   0  0  0  0  0  0  0  0  0  0  0  0
   39.2590   14.2060    3.1630 C   0  0  0  0  0  0  0  0  0  0  0  0
   42.2100   10.7070    4.1050 C   0  0  0  0  0  0  0  0  0  0  0  0
   42.9950   11.1330    2.9920 O   0  0  0  0  0  0  0  0  0  0  0  0
   42.6540   10.5500    1.7750 C   0  0  0  0  0  0  0  0  0  0  0  0
   41.7800    9.4500    1.7340 C   0  0  0  0  0  0  0  0  0  0  0  0
   41.4790    8.8420    0.5120 C   0  0  0  0  0  0  0  0  0  0  0  0
   42.0560    9.3270   -0.6660 C   0  0  0  0  0  0  0  0  0  0  0  0
   42.9410   10.4100   -0.6280 C   0  0  0  0  0  0  0  0  0  0  0  0
   43.2500   11.0250    0.5930 C   0  0  0  0  0  0  0  0  0  0  0  0
   44.2050   12.1860    0.6270 C   0  0  0  0  0  0  0  0  0  0  0  0
   41.6750    8.5790   -2.1830 Cl  0  0  0  0  0  0  0  0  0  0  0  0
   42.8890   15.4420    9.6270 F   0  0  0  0  0  0  0  0  0  0  0  0
   44.8230   13.6990    9.8370 H   0  0  0  0  0  0  0  0  0  0  0  0
   41.3840   14.9080    7.5550 H   0  0  0  0  0  0  0  0  0  0  0  0
   45.1950   11.7940    8.2780 H   0  0  0  0  0  0  0  0  0  0  0  0
   40.4750   14.3070    5.5810 H   0  0  0  0  0  0  0  0  0  0  0  0
   38.5020   14.2290    6.4050 H   0  0  0  0  0  0  0  0  0  0  0  0
   36.8490   11.8770    6.1460 H   0  0  0  0  0  0  0  0  0  0  0  0
   36.4470   14.5820    7.5830 H   0  0  0  0  0  0  0  0  0  0  0  0
   35.8150   14.1450    5.9600 H   0  0  0  0  0  0  0  0  0  0  0  0
   34.0440   13.9790    7.7060 H   0  0  0  0  0  0  0  0  0  0  0  0
   34.3770   12.3930    6.9200 H   0  0  0  0  0  0  0  0  0  0  0  0
   34.1550   12.0830    9.3720 H   0  0  0  0  0  0  0  0  0  0  0  0
   35.4180   13.3340    9.6660 H   0  0  0  0  0  0  0  0  0  0  0  0
   35.8110   10.6300    8.2370 H   0  0  0  0  0  0  0  0  0  0  0  0
   36.4200   11.0770    9.8720 H   0  0  0  0  0  0  0  0  0  0  0  0
   38.2080   11.2170    8.1020 H   0  0  0  0  0  0  0  0  0  0  0  0
   37.8980   12.8030    8.8910 H   0  0  0  0  0  0  0  0  0  0  0  0
   40.6290   12.5450    3.0900 H   0  0  0  0  0  0  0  0  0  0  0  0
   41.7620   15.3290    3.7690 H   0  0  0  0  0  0  0  0  0  0  0  0
   42.7220   13.8400    3.4920 H   0  0  0  0  0  0  0  0  0  0  0  0
   42.6790   15.3010    1.4580 H   0  0  0  0  0  0  0  0  0  0  0  0
   41.9250   13.6940    1.1610 H   0  0  0  0  0  0  0  0  0  0  0  0
   40.5250   15.4490    0.1380 H   0  0  0  0  0  0  0  0  0  0  0  0
   40.4330   16.3260    1.7090 H   0  0  0  0  0  0  0  0  0  0  0  0
   39.3170   13.5160    1.1110 H   0  0  0  0  0  0  0  0  0  0  0  0
   38.3560   15.0190    1.3570 H   0  0  0  0  0  0  0  0  0  0  0  0
   38.3790   13.5670    3.3900 H   0  0  0  0  0  0  0  0  0  0  0  0
   39.1400   15.1670    3.7110 H   0  0  0  0  0  0  0  0  0  0  0  0
   41.1280   10.6840    3.8750 H   0  0  0  0  0  0  0  0  0  0  0  0
   42.5050    9.6640    4.3500 H   0  0  0  0  0  0  0  0  0  0  0  0
   41.3420    9.0680    2.6440 H   0  0  0  0  0  0  0  0  0  0  0  0
   40.8030    8.0000    0.4770 H   0  0  0  0  0  0  0  0  0  0  0  0
   43.3850   10.7760   -1.5420 H   0  0  0  0  0  0  0  0  0  0  0  0
   45.2530   11.8170    0.6070 H   0  0  0  0  0  0  0  0  0  0  0  0
   44.0410   12.7700    1.5590 H   0  0  0  0  0  0  0  0  0  0  0  0
   44.0230   12.8360   -0.2520 H   0  0  0  0  0  0  0  0  0  0  0  0
  1 37  1  0  0  0  0
  2  1  1  0  0  0  0
  2 36  1  0  0  0  0
  3  2  2  0  0  0  0
  4  5  2  0  0  0  0
  4  3  1  0  0  0  0
  5  6  1  0  0  0  0
  6 39  1  0  0  0  0
  6  1  2  0  0  0  0
  7  5  1  0  0  0  0
  8  9  1  0  0  0  0
  8  7  2  0  0  0  0
  9  4  1  0  0  0  0
 10 40  1  1  0  0  0
 10 11  1  0  0  0  0
 10  9  1  0  0  0  0
 11 13  1  0  0  0  0
 12 11  2  0  0  0  0
 13 41  1  0  0  0  0
 13 14  1  0  0  0  0
 14 15  1  0  0  0  0
 14 19  1  0  0  0  0
 15 43  1  0  0  0  0
 15 16  1  0  0  0  0
 16 45  1  0  0  0  0
 16 17  1  0  0  0  0
 17 47  1  0  0  0  0
 17 48  1  0  0  0  0
 18 17  1  0  0  0  0
 18 50  1  0  0  0  0
 19 18  1  0  0  0  0
 19 52  1  0  0  0  0
 20 10  1  0  0  0  0
 21 55  1  0  0  0  0
 21 20  1  0  0  0  0
 21 54  1  0  0  0  0
 22 21  1  0  0  0  0
 23 24  1  0  0  0  0
 23 22  1  0  0  0  0
 23 59  1  0  0  0  0
 24 25  1  0  0  0  0
 25 62  1  0  0  0  0
 25 20  1  0  0  0  0
 25 63  1  0  0  0  0
 26 65  1  0  0  0  0
 26  8  1  0  0  0  0
 27 26  1  0  0  0  0
 28 27  1  0  0  0  0
 29 28  1  0  0  0  0
 29 66  1  0  0  0  0
 30 29  2  0  0  0  0
 31 32  2  0  0  0  0
 31 30  1  0  0  0  0
 32 33  1  0  0  0  0
 33 34  1  0  0  0  0
 33 28  2  0  0  0  0
 34 70  1  0  0  0  0
 35 31  1  0  0  0  0
 38  3  1  0  0  0  0
 42 14  1  0  0  0  0
 44 15  1  0  0  0  0
 46 16  1  0  0  0  0
 49 18  1  0  0  0  0
 51 19  1  0  0  0  0
 53 20  1  0  0  0  0
 56 22  1  0  0  0  0
 57 22  1  0  0  0  0
 58 23  1  0  0  0  0
 60 24  1  0  0  0  0
 61 24  1  0  0  0  0
 64 26  1  0  0  0  0
 67 30  1  0  0  0  0
 68 32  1  0  0  0  0
 69 34  1  0  0  0  0
 71 34  1  0  0  0  0
M  END
