fxr8
 OpenBabel11211618043D

 68 72  0  0  1  0  0  0  0  0999 V2000
   41.7680   13.2390    4.1360 C   0  0  0  0  0  0  0  0  0  0  0  0
   42.2420   12.6610    2.9480 N   0  0  0  0  0  0  0  0  0  0  0  0
   43.0680   11.4350    2.7350 C   0  0  2  0  0  0  0  0  0  0  0  0
   42.4090   10.5730    1.6510 C   0  0  0  0  0  0  0  0  0  0  0  0
   41.2230   10.2420    1.7090 O   0  0  0  0  0  0  0  0  0  0  0  0
   43.1810   10.2150    0.6080 N   0  0  0  0  0  0  0  0  0  0  0  0
   42.7800    9.3570   -0.4670 C   0  0  0  0  0  0  0  0  0  0  0  0
   43.9620    8.4970   -0.9730 C   0  0  0  0  0  0  0  0  0  0  0  0
   43.5630    7.6330   -2.1780 C   0  0  0  0  0  0  0  0  0  0  0  0
   42.9740    8.4820   -3.3150 C   0  0  0  0  0  0  0  0  0  0  0  0
   41.8100    9.3530   -2.8200 C   0  0  0  0  0  0  0  0  0  0  0  0
   42.2170   10.2100   -1.6170 C   0  0  0  0  0  0  0  0  0  0  0  0
   43.4450   10.4860    3.9000 C   0  0  0  0  0  0  0  0  0  0  0  0
   44.5600    9.4510    3.5690 C   0  0  0  0  0  0  0  0  0  0  0  0
   44.9840    8.6580    4.8110 C   0  0  0  0  0  0  0  0  0  0  0  0
   43.7780    7.9580    5.4540 C   0  0  0  0  0  0  0  0  0  0  0  0
   42.6550    8.9560    5.7800 C   0  0  0  0  0  0  0  0  0  0  0  0
   42.2290    9.7700    4.5470 C   0  0  0  0  0  0  0  0  0  0  0  0
   41.7850   13.5020    1.9340 C   0  0  0  0  0  0  0  0  0  0  0  0
   40.9300   14.4260    2.5510 C   0  0  0  0  0  0  0  0  0  0  0  0
   40.9590   14.2650    3.9010 N   0  0  0  0  0  0  0  0  0  0  0  0
   40.2150   15.3360    1.7860 C   0  0  0  0  0  0  0  0  0  0  0  0
   40.3700   15.3480    0.3950 C   0  0  0  0  0  0  0  0  0  0  0  0
   41.2540   14.4560   -0.2200 C   0  0  0  0  0  0  0  0  0  0  0  0
   41.9610   13.5300    0.5510 C   0  0  0  0  0  0  0  0  0  0  0  0
   42.2730   13.0110    5.5230 C   0  0  0  0  0  0  0  0  0  0  0  0
   41.3790   12.6350    6.5400 C   0  0  0  0  0  0  0  0  0  0  0  0
   41.8280   12.4730    7.8540 C   0  0  0  0  0  0  0  0  0  0  0  0
   43.1740   12.7020    8.1810 C   0  0  0  0  0  0  0  0  0  0  0  0
   44.0660   13.1100    7.1740 C   0  0  0  0  0  0  0  0  0  0  0  0
   43.6180   13.2780    5.8580 C   0  0  0  0  0  0  0  0  0  0  0  0
   43.6510   12.4990    9.5940 C   0  0  0  0  0  0  0  0  0  0  0  0
   44.1530   11.1800    9.7750 O   0  0  0  0  0  0  0  0  0  0  0  0
   44.0270   11.8160    2.3160 H   0  0  0  0  0  0  0  0  0  0  0  0
   44.1390   10.4880    0.5790 H   0  0  0  0  0  0  0  0  0  0  0  0
   41.9760    8.6570   -0.1380 H   0  0  0  0  0  0  0  0  0  0  0  0
   44.7980    9.1680   -1.2670 H   0  0  0  0  0  0  0  0  0  0  0  0
   44.3210    7.8430   -0.1490 H   0  0  0  0  0  0  0  0  0  0  0  0
   44.4470    7.0700   -2.5490 H   0  0  0  0  0  0  0  0  0  0  0  0
   42.7970    6.8950   -1.8500 H   0  0  0  0  0  0  0  0  0  0  0  0
   42.6280    7.8220   -4.1400 H   0  0  0  0  0  0  0  0  0  0  0  0
   43.7720    9.1460   -3.7150 H   0  0  0  0  0  0  0  0  0  0  0  0
   40.9690    8.6890   -2.5170 H   0  0  0  0  0  0  0  0  0  0  0  0
   41.4530   10.0080   -3.6440 H   0  0  0  0  0  0  0  0  0  0  0  0
   41.3350   10.7810   -1.2530 H   0  0  0  0  0  0  0  0  0  0  0  0
   42.9910   10.9430   -1.9370 H   0  0  0  0  0  0  0  0  0  0  0  0
   43.9130   11.1010    4.6940 H   0  0  0  0  0  0  0  0  0  0  0  0
   44.2000    8.6860    2.8520 H   0  0  0  0  0  0  0  0  0  0  0  0
   45.4390    9.9690    3.1320 H   0  0  0  0  0  0  0  0  0  0  0  0
   45.7500    7.9030    4.5300 H   0  0  0  0  0  0  0  0  0  0  0  0
   45.4380    9.3550    5.5500 H   0  0  0  0  0  0  0  0  0  0  0  0
   44.0980    7.4330    6.3800 H   0  0  0  0  0  0  0  0  0  0  0  0
   43.3850    7.1970    4.7430 H   0  0  0  0  0  0  0  0  0  0  0  0
   43.0190    9.6590    6.5620 H   0  0  0  0  0  0  0  0  0  0  0  0
   41.7770    8.4110    6.1890 H   0  0  0  0  0  0  0  0  0  0  0  0
   41.4640   10.5170    4.8460 H   0  0  0  0  0  0  0  0  0  0  0  0
   41.7640    9.0740    3.8180 H   0  0  0  0  0  0  0  0  0  0  0  0
   39.5410   16.0290    2.2670 H   0  0  0  0  0  0  0  0  0  0  0  0
   39.8160   16.0570   -0.2040 H   0  0  0  0  0  0  0  0  0  0  0  0
   41.3810   14.4750   -1.2930 H   0  0  0  0  0  0  0  0  0  0  0  0
   42.6340   12.8430    0.0630 H   0  0  0  0  0  0  0  0  0  0  0  0
   40.3380   12.4550    6.3110 H   0  0  0  0  0  0  0  0  0  0  0  0
   41.1310   12.1670    8.6210 H   0  0  0  0  0  0  0  0  0  0  0  0
   45.1020   13.2940    7.4180 H   0  0  0  0  0  0  0  0  0  0  0  0
   44.3170   13.5940    5.0970 H   0  0  0  0  0  0  0  0  0  0  0  0
   42.8170   12.6810   10.3080 H   0  0  0  0  0  0  0  0  0  0  0  0
   44.4620   13.2310    9.7980 H   0  0  0  0  0  0  0  0  0  0  0  0
   44.4660   11.1330   10.6810 H   0  0  0  0  0  0  0  0  0  0  0  0
  1 26  1  0  0  0  0
  2  1  1  0  0  0  0
  3 34  1  6  0  0  0
  3  2  1  0  0  0  0
  3 13  1  0  0  0  0
  4  5  2  0  0  0  0
  4  3  1  0  0  0  0
  6  4  1  0  0  0  0
  7 36  1  0  0  0  0
  7  6  1  0  0  0  0
  8  7  1  0  0  0  0
  8 38  1  0  0  0  0
  9 40  1  0  0  0  0
  9  8  1  0  0  0  0
 10 11  1  0  0  0  0
 10  9  1  0  0  0  0
 11 43  1  0  0  0  0
 11 12  1  0  0  0  0
 12 45  1  0  0  0  0
 12  7  1  0  0  0  0
 13 18  1  0  0  0  0
 13 47  1  0  0  0  0
 14 13  1  0  0  0  0
 14 15  1  0  0  0  0
 15 16  1  0  0  0  0
 15 51  1  0  0  0  0
 16 17  1  0  0  0  0
 16 52  1  0  0  0  0
 17 55  1  0  0  0  0
 17 54  1  0  0  0  0
 18 56  1  0  0  0  0
 18 17  1  0  0  0  0
 19 20  1  0  0  0  0
 19  2  1  0  0  0  0
 20 21  1  0  0  0  0
 21  1  2  0  0  0  0
 22 58  1  0  0  0  0
 22 20  2  0  0  0  0
 23 22  1  0  0  0  0
 24 23  2  0  0  0  0
 24 25  1  0  0  0  0
 25 19  2  0  0  0  0
 26 31  2  0  0  0  0
 26 27  1  0  0  0  0
 27 28  2  0  0  0  0
 28 29  1  0  0  0  0
 28 63  1  0  0  0  0
 29 32  1  0  0  0  0
 30 64  1  0  0  0  0
 30 29  2  0  0  0  0
 31 30  1  0  0  0  0
 32 33  1  0  0  0  0
 32 67  1  0  0  0  0
 32 66  1  0  0  0  0
 33 68  1  0  0  0  0
 35  6  1  0  0  0  0
 37  8  1  0  0  0  0
 39  9  1  0  0  0  0
 41 10  1  0  0  0  0
 42 10  1  0  0  0  0
 44 11  1  0  0  0  0
 46 12  1  0  0  0  0
 48 14  1  0  0  0  0
 49 14  1  0  0  0  0
 50 15  1  0  0  0  0
 53 16  1  0  0  0  0
 57 18  1  0  0  0  0
 59 23  1  0  0  0  0
 60 24  1  0  0  0  0
 61 25  1  0  0  0  0
 62 27  1  0  0  0  0
 65 31  1  0  0  0  0
M  END
