fxr2
 OpenBabel11211618043D

 46 49  0  0  0  0  0  0  0  0999 V2000
   38.2840   12.1270    3.9330 C   0  0  0  0  0  0  0  0  0  0  0  0
   39.2610   13.1060    3.3270 C   0  0  0  0  0  0  0  0  0  0  0  0
   38.8970   14.4590    3.3540 C   0  0  0  0  0  0  0  0  0  0  0  0
   39.7340   15.4330    2.8120 C   0  0  0  0  0  0  0  0  0  0  0  0
   40.9340   15.0570    2.2120 C   0  0  0  0  0  0  0  0  0  0  0  0
   41.3130   13.7090    2.1360 C   0  0  0  0  0  0  0  0  0  0  0  0
   42.6170   13.4500    1.4220 C   0  0  0  0  0  0  0  0  0  0  0  0
   40.4810   12.7020    2.7250 C   0  0  0  0  0  0  0  0  0  0  0  0
   40.7480   11.2950    2.7410 N   0  0  0  0  0  0  0  0  0  0  0  0
   42.0110   10.7450    3.0930 C   0  0  0  0  0  0  0  0  0  0  0  0
   42.6510    9.9910    2.1370 C   0  0  0  0  0  0  0  0  0  0  0  0
   43.9390    9.6840    2.5700 N   0  0  0  0  0  0  0  0  0  0  0  0
   44.0620   10.2240    3.8190 C   0  0  0  0  0  0  0  0  0  0  0  0
   45.1450   10.2600    4.6820 C   0  0  0  0  0  0  0  0  0  0  0  0
   45.0020   10.8190    5.9570 C   0  0  0  0  0  0  0  0  0  0  0  0
   43.7610   11.3270    6.3650 C   0  0  0  0  0  0  0  0  0  0  0  0
   42.6670   11.3320    5.4910 C   0  0  0  0  0  0  0  0  0  0  0  0
   41.3190   11.7190    6.0320 C   0  0  0  0  0  0  0  0  0  0  0  0
   42.8210   10.8520    4.1830 N   0  0  0  0  0  0  0  0  0  0  0  0
   42.2320    9.4780    0.7930 C   0  0  0  0  0  0  0  0  0  0  0  0
   42.9620    9.7390   -0.3820 C   0  0  0  0  0  0  0  0  0  0  0  0
   44.1610   10.3790   -0.3480 F   0  0  0  0  0  0  0  0  0  0  0  0
   42.5170    9.3380   -1.6340 C   0  0  0  0  0  0  0  0  0  0  0  0
   41.3140    8.6410   -1.7540 C   0  0  0  0  0  0  0  0  0  0  0  0
   40.5680    8.3470   -0.6130 C   0  0  0  0  0  0  0  0  0  0  0  0
   41.0210    8.7590    0.6340 C   0  0  0  0  0  0  0  0  0  0  0  0
   40.2100    8.4700    1.6930 F   0  0  0  0  0  0  0  0  0  0  0  0
   37.5810   12.6690    4.6030 H   0  0  0  0  0  0  0  0  0  0  0  0
   38.8130   11.3600    4.5370 H   0  0  0  0  0  0  0  0  0  0  0  0
   37.7130   11.6410    3.1130 H   0  0  0  0  0  0  0  0  0  0  0  0
   37.9630   14.7560    3.8090 H   0  0  0  0  0  0  0  0  0  0  0  0
   39.4490   16.4750    2.8490 H   0  0  0  0  0  0  0  0  0  0  0  0
   41.5720   15.8180    1.7850 H   0  0  0  0  0  0  0  0  0  0  0  0
   42.8940   14.3570    0.8430 H   0  0  0  0  0  0  0  0  0  0  0  0
   42.5070   12.5860    0.7320 H   0  0  0  0  0  0  0  0  0  0  0  0
   43.4150   13.2090    2.1530 H   0  0  0  0  0  0  0  0  0  0  0  0
   39.9480   10.6650    2.7080 H   0  0  0  0  0  0  0  0  0  0  0  0
   46.0970    9.8580    4.3680 H   0  0  0  0  0  0  0  0  0  0  0  0
   45.8400   10.8320    6.6380 H   0  0  0  0  0  0  0  0  0  0  0  0
   43.6450   11.7060    7.3700 H   0  0  0  0  0  0  0  0  0  0  0  0
   41.3870   11.8560    7.1330 H   0  0  0  0  0  0  0  0  0  0  0  0
   40.5940   10.9130    5.7950 H   0  0  0  0  0  0  0  0  0  0  0  0
   40.9800   12.6730    5.5730 H   0  0  0  0  0  0  0  0  0  0  0  0
   43.0970    9.5550   -2.5200 H   0  0  0  0  0  0  0  0  0  0  0  0
   40.9650    8.3260   -2.7270 H   0  0  0  0  0  0  0  0  0  0  0  0
   39.6370    7.8070   -0.7100 H   0  0  0  0  0  0  0  0  0  0  0  0
  1 29  1  0  0  0  0
  1 28  1  0  0  0  0
  2  3  1  0  0  0  0
  2  1  1  0  0  0  0
  3 31  1  0  0  0  0
  4 32  1  0  0  0  0
  4  3  2  0  0  0  0
  5  4  1  0  0  0  0
  6  5  2  0  0  0  0
  6  8  1  0  0  0  0
  7  6  1  0  0  0  0
  7 36  1  0  0  0  0
  8  9  1  0  0  0  0
  8  2  2  0  0  0  0
  9 10  1  0  0  0  0
 10 19  1  0  0  0  0
 11 12  1  0  0  0  0
 11 10  2  0  0  0  0
 12 13  2  0  0  0  0
 13 19  1  0  0  0  0
 13 14  1  0  0  0  0
 14 15  2  0  0  0  0
 15 16  1  0  0  0  0
 15 39  1  0  0  0  0
 16 40  1  0  0  0  0
 17 18  1  0  0  0  0
 17 16  2  0  0  0  0
 18 41  1  0  0  0  0
 19 17  1  0  0  0  0
 20 11  1  0  0  0  0
 21 22  1  0  0  0  0
 21 20  2  0  0  0  0
 23 21  1  0  0  0  0
 24 23  2  0  0  0  0
 24 25  1  0  0  0  0
 25 26  2  0  0  0  0
 26 20  1  0  0  0  0
 26 27  1  0  0  0  0
 30  1  1  0  0  0  0
 33  5  1  0  0  0  0
 34  7  1  0  0  0  0
 35  7  1  0  0  0  0
 37  9  1  0  0  0  0
 38 14  1  0  0  0  0
 42 18  1  0  0  0  0
 43 18  1  0  0  0  0
 44 23  1  0  0  0  0
 45 24  1  0  0  0  0
 46 25  1  0  0  0  0
M  END
